data_structure

_audit_creation_method RASPA-1.0
_audit_creation_date 2023-5-25
_audit_author_name 'Poobodin Mano'

_cell_length_a    36.3286
_cell_length_b    36.1809
_cell_length_c    37.4219
_cell_angle_alpha 90
_cell_angle_beta  90
_cell_angle_gamma 90
_cell_volume      49187.4

_symmetry_cell_setting          triclinic
_symmetry_space_group_name_Hall 'P 1'
_symmetry_space_group_name_H-M  'P 1'
_symmetry_Int_Tables_number     1

_symmetry_equiv_pos_as_xyz 'x,y,z'

loop_
_atom_site_label
_atom_site_type_symbol
_atom_site_fract_x
_atom_site_fract_y
_atom_site_fract_z
_atom_site_charge
C1       C      0.031130000000     0.934040000000     0.009740000000     0.303156   
C2       C      0.027330000000     0.067820000000     0.952770000000     0.29605    
C3       C      0.039950000000     0.972140000000     0.917210000000     0.29542    
C4       C      0.018660000000     0.029720000000     0.045480000000     0.310101   
C5       C      0.073100000000     0.994140000000     0.569160000000     0.308539   
C6       C      0.981370000000     0.089520000000     0.509730000000     0.306489   
C7       C      0.082290000000     0.070870000000     0.502570000000     0.296177   
C8       C      0.972170000000     0.012750000000     0.576080000000     0.303386   
C9       C      0.018420000000     0.515860000000     0.050730000000     0.47716    
C10      C      0.044360000000     0.496940000000     0.918440000000     0.47369    
C11      C      0.096370000000     0.491910000000     0.998420000000     0.365483   
C12      C      0.963350000000     0.518630000000     0.970190000000     0.36631    
C13      C      0.007140000000     0.507060000000     0.549670000000     0.477675   
C14      C      0.976530000000     0.524790000000     0.418230000000     0.473054   
C15      C      0.060290000000     0.513710000000     0.469290000000     0.36248    
C16      C      0.925360000000     0.524510000000     0.499710000000     0.373869   
C17      C      0.521340000000     0.001480000000     0.023110000000     0.48008    
C18      C      0.526270000000     0.034230000000     0.891250000000     0.476325   
C19      C      0.528150000000     0.949620000000     0.943500000000     0.475437   
C20      C      0.527190000000     0.086420000000     0.974530000000     0.474525   
C21      C      0.519460000000     0.036080000000     0.389170000000     0.481224   
C22      C      0.522930000000     0.009000000000     0.522360000000     0.48168    
C23      C      0.523670000000     0.091220000000     0.466890000000     0.476751   
C24      C      0.519020000000     0.953570000000     0.442020000000     0.478732   
C25      C      0.535550000000     0.603060000000     0.072830000000     0.476813   
C26      C      0.531420000000     0.467600000000     0.036450000000     0.474729   
C27      C      0.535780000000     0.555010000000     0.991160000000     0.477113   
C28      C      0.531280000000     0.516900000000     0.121800000000     0.474479   
C29      C      0.525420000000     0.467100000000     0.549170000000     0.475312   
C30      C      0.517730000000     0.605710000000     0.567460000000     0.480901   
C31      C      0.516100000000     0.546050000000     0.489940000000     0.477621   
C32      C      0.520110000000     0.526410000000     0.624260000000     0.475333   
C33      C      0.501210000000     0.558490000000     0.900580000000    -0.0314175  
C34      C      0.557780000000     0.531750000000     0.714940000000    -0.0317858  
C35      C      0.487190000000     0.515670000000     0.681270000000    -0.00293757 
C36      C      0.556680000000     0.512910000000     0.678450000000    -0.00179483 
C37      C      0.528000000000     0.507340000000     0.799310000000    -0.0525304  
C38      C      0.532180000000     0.582340000000     0.817000000000    -0.0532127  
C39      C      0.527220000000     0.533920000000     0.772150000000     0.0620188  
C40      C      0.490860000000     0.534270000000     0.717840000000    -0.0310771  
C41      C      0.532970000000     0.555740000000     0.844170000000     0.0631748  
C42      C      0.568310000000     0.554220000000     0.899110000000    -0.0362651  
C43      C      0.530780000000     0.518020000000     0.835050000000    -0.0560913  
C44      C      0.571470000000     0.570990000000     0.936760000000     0.0205544  
C45      C      0.502040000000     0.576330000000     0.937500000000    -0.000955895
C46      C      0.529320000000     0.571640000000     0.781230000000    -0.0553093  
C47      C      0.580690000000     0.610550000000     0.934570000000     0.0480933  
C48      C      0.483460000000     0.536290000000     0.397230000000    -0.0312254  
C49      C      0.559450000000     0.519710000000     0.215240000000    -0.0322484  
C50      C      0.494720000000     0.497720000000     0.174540000000    -0.00192131 
C51      C      0.563850000000     0.502060000000     0.178280000000    -0.00201282 
C52      C      0.519350000000     0.555670000000     0.278450000000    -0.0554034  
C53      C      0.520300000000     0.501730000000     0.332000000000    -0.0562171  
C54      C      0.522590000000     0.518090000000     0.269090000000     0.0617652  
C55      C      0.492520000000     0.515700000000     0.211430000000    -0.0319052  
C56      C      0.517080000000     0.539310000000     0.341380000000     0.0623489  
C57      C      0.550090000000     0.543060000000     0.397230000000    -0.0354117  
C58      C      0.516620000000     0.566060000000     0.314330000000    -0.0528124  
C59      C      0.549830000000     0.561010000000     0.434370000000     0.0202435  
C60      C      0.480230000000     0.554180000000     0.434180000000    -0.00191153 
C61      C      0.522950000000     0.491350000000     0.296130000000    -0.0536851  
C62      C      0.553390000000     0.601430000000     0.431310000000     0.0476473  
C63      C      0.482340000000     0.865490000000     0.461120000000    -0.0313418  
C64      C      0.548620000000     0.695880000000     0.546930000000    -0.032741   
C65      C      0.480740000000     0.663070000000     0.573560000000    -0.00165562 
C66      C      0.549540000000     0.665800000000     0.575590000000    -0.0012971  
C67      C      0.513500000000     0.783740000000     0.540310000000    -0.0534142  
C68      C      0.514390000000     0.774920000000     0.466030000000    -0.0518121  
C69      C      0.513690000000     0.748170000000     0.525660000000     0.063031   
C70      C      0.481100000000     0.693350000000     0.545060000000    -0.0321265  
C71      C      0.514200000000     0.810510000000     0.480690000000     0.063037   
C72      C      0.549900000000     0.862770000000     0.460600000000    -0.0350948  
C73      C      0.513830000000     0.814740000000     0.518120000000    -0.0556079  
C74      C      0.551830000000     0.894120000000     0.433020000000     0.0199229  
C75      C      0.482580000000     0.896290000000     0.433190000000    -0.000577858
C76      C      0.514210000000     0.743900000000     0.488240000000    -0.0556425  
C77      C      0.556010000000     0.878970000000     0.396730000000     0.049722   
C78      C      0.560750000000     0.183870000000     0.490560000000    -0.0307713  
C79      C      0.495600000000     0.371420000000     0.528780000000    -0.0314905  
C80      C      0.563070000000     0.410360000000     0.547880000000    -0.00259637 
C81      C      0.493170000000     0.407220000000     0.550230000000    -0.00224836 
C82      C      0.531160000000     0.285280000000     0.546140000000    -0.0532344  
C83      C      0.529690000000     0.272780000000     0.472400000000    -0.0535039  
C84      C      0.530870000000     0.315370000000     0.522620000000     0.0617398  
C85      C      0.562290000000     0.374290000000     0.526610000000    -0.0314649  
C86      C      0.529720000000     0.242690000000     0.495920000000     0.063052   
C87      C      0.494070000000     0.186490000000     0.491180000000    -0.0350741  
C88      C      0.530570000000     0.249160000000     0.533010000000    -0.0563886  
C89      C      0.490560000000     0.150640000000     0.469580000000     0.0197522  
C90      C      0.560870000000     0.148100000000     0.468880000000    -0.00195352 
C91      C      0.530230000000     0.308890000000     0.485520000000    -0.0555302  
C92      C      0.481480000000     0.159090000000     0.432100000000     0.0525825  
C93      C      0.501810000000     0.691980000000     0.053630000000    -0.0313155  
C94      C      0.563810000000     0.861540000000     0.964400000000    -0.0325108  
C95      C      0.494600000000     0.890170000000     0.936520000000    -0.00201664 
C96      C      0.563370000000     0.891380000000     0.935420000000    -0.00176133 
C97      C      0.532040000000     0.771620000000     0.971720000000    -0.0518777  
C98      C      0.533930000000     0.781330000000     0.045860000000    -0.0514043  
C99      C      0.531590000000     0.807420000000     0.985920000000     0.0625579  
C100     C      0.496290000000     0.860230000000     0.965450000000    -0.0322446  
C101     C      0.534440000000     0.745520000000     0.031650000000     0.0635827  
C102     C      0.569300000000     0.692030000000     0.051130000000    -0.0365889  
C103     C      0.533390000000     0.740860000000     0.994270000000    -0.0557033  
C104     C      0.571360000000     0.661190000000     0.079390000000     0.0207519  
C105     C      0.502180000000     0.662060000000     0.082480000000    -0.00137215 
C106     C      0.532490000000     0.812100000000     0.023290000000    -0.0548907  
C107     C      0.578130000000     0.677020000000     0.115030000000     0.0490017  
C108     C      0.495870000000     0.372550000000     0.021210000000    -0.0314549  
C109     C      0.560440000000     0.182570000000     0.989090000000    -0.0323454  
C110     C      0.491480000000     0.141420000000     0.992430000000    -0.00288945 
C111     C      0.561430000000     0.140920000000     0.996130000000    -0.00187512 
C112     C      0.528230000000     0.258810000000     0.971580000000    -0.0557146  
C113     C      0.526650000000     0.295740000000     0.037260000000    -0.0560435  
C114     C      0.526800000000     0.238310000000     0.003550000000     0.062022   
C115     C      0.493830000000     0.183060000000     0.985650000000    -0.0314614  
C116     C      0.527990000000     0.316250000000     0.005290000000     0.0624379  
C117     C      0.562600000000     0.370810000000     0.021980000000    -0.0353849  
C118     C      0.528780000000     0.297450000000     0.972580000000    -0.0528971  
C119     C      0.565550000000     0.412630000000     0.015520000000     0.0196541  
C120     C      0.495370000000     0.414300000000     0.014590000000    -0.0016637  
C121     C      0.526020000000     0.257120000000     0.036260000000    -0.0533838  
C122     C      0.574800000000     0.420030000000     0.977880000000     0.0519507  
C123     C      0.494760000000     0.033280000000     0.798450000000    -0.0310442  
C124     C      0.559290000000     0.010640000000     0.613690000000    -0.0321047  
C125     C      0.489150000000     0.996380000000     0.578530000000    -0.00143014 
C126     C      0.558520000000     0.992800000000     0.576630000000    -0.00102034 
C127     C      0.526760000000     0.985000000000     0.697190000000    -0.0531124  
C128     C      0.529970000000     0.059630000000     0.716420000000    -0.0530463  
C129     C      0.527450000000     0.012080000000     0.670480000000     0.0616752  
C130     C      0.492350000000     0.014000000000     0.615540000000    -0.0318968  
C131     C      0.528980000000     0.032540000000     0.743140000000     0.0624295  
C132     C      0.561770000000     0.031010000000     0.799480000000    -0.0353494  
C133     C      0.527550000000     0.995000000000     0.733240000000    -0.0559183  
C134     C      0.563150000000     0.047990000000     0.837120000000     0.0198753  
C135     C      0.493390000000     0.050870000000     0.835550000000    -0.00203502 
C136     C      0.529250000000     0.049610000000     0.680350000000    -0.0553601  
C137     C      0.571820000000     0.087670000000     0.835010000000     0.0489683  
C138     C      0.484800000000     0.004440000000     0.113340000000    -0.0315203  
C139     C      0.550660000000     0.030330000000     0.296850000000    -0.0322556  
C140     C      0.483970000000     0.051890000000     0.334710000000    -0.00196381 
C141     C      0.553300000000     0.049390000000     0.333190000000    -0.00135594 
C142     C      0.517030000000     0.055140000000     0.214060000000    -0.0531919  
C143     C      0.514850000000     0.979660000000     0.197980000000    -0.0523768  
C144     C      0.516010000000     0.029270000000     0.241850000000     0.0623472  
C145     C      0.483570000000     0.032730000000     0.298280000000    -0.031736   
C146     C      0.516200000000     0.005530000000     0.170200000000     0.0626975  
C147     C      0.551950000000     0.002500000000     0.115840000000    -0.0361083  
C148     C      0.517100000000     0.043500000000     0.178490000000    -0.0557276  
C149     C      0.554200000000     0.984460000000     0.078770000000     0.0210235  
C150     C      0.484570000000     0.985720000000     0.076750000000    -0.000742844
C151     C      0.514720000000     0.991310000000     0.233570000000    -0.0551797  
C152     C      0.559720000000     0.944290000000     0.082100000000     0.0478732  
C153     C      0.844050000000     0.636190000000     0.531740000000    -0.0246506  
C154     C      0.668530000000     0.552400000000     0.588330000000    -0.0212438  
C155     C      0.622810000000     0.569020000000     0.527720000000    -0.0258273  
C156     C      0.626460000000     0.549540000000     0.589890000000    -0.0238689  
C157     C      0.731590000000     0.622260000000     0.570090000000    -0.0533841  
C158     C      0.781620000000     0.566740000000     0.551530000000    -0.0530326  
C159     C      0.718530000000     0.586950000000     0.561410000000     0.0619061  
C160     C      0.664810000000     0.571550000000     0.526110000000    -0.0203597  
C161     C      0.794660000000     0.602050000000     0.560160000000     0.0629175  
C162     C      0.848820000000     0.618280000000     0.594750000000    -0.0300503  
C163     C      0.769310000000     0.629870000000     0.569510000000    -0.0562867  
C164     C      0.891060000000     0.620020000000     0.593130000000     0.000993456
C165     C      0.886010000000     0.638100000000     0.528400000000    -0.0249746  
C166     C      0.743900000000     0.559130000000     0.552080000000    -0.0553886  
C167     C      0.906750000000     0.582760000000     0.589130000000     0.0516462  
C168     C      0.373210000000     0.494610000000     0.573290000000    -0.0232924  
C169     C      0.178270000000     0.550320000000     0.577070000000    -0.0258115  
C170     C      0.141790000000     0.479480000000     0.587770000000    -0.0240261  
C171     C      0.137110000000     0.545750000000     0.569280000000    -0.0241253  
C172     C      0.258460000000     0.511980000000     0.544060000000    -0.0536841  
C173     C      0.292680000000     0.532170000000     0.608100000000    -0.0537095  
C174     C      0.236920000000     0.518520000000     0.574450000000     0.0614305  
C175     C      0.182870000000     0.485310000000     0.595170000000    -0.0258638  
C176     C      0.314230000000     0.525560000000     0.577720000000     0.0621803  
C177     C      0.367680000000     0.560020000000     0.557820000000    -0.0278568  
C178     C      0.296770000000     0.515470000000     0.545540000000    -0.0564691  
C179     C      0.409210000000     0.565310000000     0.563830000000     0.00460108 
C180     C      0.414590000000     0.499610000000     0.579570000000    -0.0172816  
C181     C      0.254350000000     0.528750000000     0.606590000000    -0.0557905  
C182     C      0.416590000000     0.579780000000     0.599980000000     0.0494982  
C183     C      0.875710000000     0.548780000000     0.068950000000    -0.0263974  
C184     C      0.679670000000     0.498660000000     0.077000000000    -0.0231334  
C185     C      0.642390000000     0.566310000000     0.058720000000    -0.0178632  
C186     C      0.638460000000     0.504430000000     0.083180000000    -0.018247   
C187     C      0.761250000000     0.538410000000     0.103180000000    -0.0535551  
C188     C      0.792000000000     0.512220000000     0.039510000000    -0.0530943  
C189     C      0.738240000000     0.530000000000     0.074240000000     0.0622906  
C190     C      0.683770000000     0.561510000000     0.052580000000    -0.0231413  
C191     C      0.814960000000     0.520630000000     0.068400000000     0.0633021  
C192     C      0.867620000000     0.484360000000     0.087350000000    -0.0305057  
C193     C      0.799350000000     0.533690000000     0.100430000000    -0.056282   
C194     C      0.907360000000     0.474950000000     0.076810000000     0.00135155 
C195     C      0.915640000000     0.541390000000     0.058020000000    -0.0207871  
C196     C      0.753960000000     0.516720000000     0.042310000000    -0.0553958  
C197     C      0.908230000000     0.456760000000     0.041670000000     0.0521534  
C198     C      0.192810000000     0.539820000000     0.076060000000    -0.0261828  
C199     C      0.387830000000     0.573960000000     0.039960000000    -0.0224868  
C200     C      0.424630000000     0.517900000000     0.081290000000    -0.0176895  
C201     C      0.429010000000     0.575230000000     0.047970000000    -0.0195043  
C202     C      0.307300000000     0.572950000000     0.088350000000    -0.0536829  
C203     C      0.274580000000     0.538980000000     0.029190000000    -0.0536579  
C204     C      0.329310000000     0.554190000000     0.063560000000     0.0620982  
C205     C      0.383210000000     0.516160000000     0.073890000000    -0.0233311  
C206     C      0.252620000000     0.557910000000     0.053850000000     0.0632316  
C207     C      0.199940000000     0.597350000000     0.042280000000    -0.0301343  
C208     C      0.269210000000     0.574830000000     0.083650000000    -0.0565726  
C209     C      0.159260000000     0.596570000000     0.031020000000     0.00123459 
C210     C      0.152550000000     0.536630000000     0.064840000000    -0.0187226  
C211     C      0.312630000000     0.537040000000     0.033900000000    -0.0558303  
C212     C      0.155260000000     0.583630000000     0.993970000000     0.056671   
C213     C      0.036550000000     0.528480000000     0.643850000000    -0.0321659  
C214     C      0.036430000000     0.458130000000     0.828140000000    -0.0317912  
C215     C      0.068830000000     0.522910000000     0.862060000000    -0.002913   
C216     C      0.051750000000     0.455420000000     0.866200000000    -0.00276339 
C217     C      0.009960000000     0.494770000000     0.759490000000    -0.0551567  
C218     C      0.065110000000     0.484180000000     0.708290000000    -0.0567469  
C219     C      0.046250000000     0.487250000000     0.770570000000     0.0613972  
C220     C      0.052600000000     0.523380000000     0.824410000000    -0.0314045  
C221     C      0.028850000000     0.491890000000     0.697320000000     0.0632606  
C222     C      0.026250000000     0.462850000000     0.638780000000    -0.0345034  
C223     C      0.001460000000     0.496950000000     0.723170000000    -0.0531769  
C224     C      0.006890000000     0.466430000000     0.602480000000     0.0203841  
C225     C      0.018630000000     0.536520000000     0.607720000000     0.000325746
C226     C      0.073610000000     0.481840000000     0.744680000000    -0.0532182  
C227     C      0.967000000000     0.460660000000     0.606900000000     0.0569944  
C228     C      0.994370000000     0.492850000000     0.145640000000    -0.0317084  
C229     C      0.979710000000     0.565250000000     0.328510000000    -0.0319461  
C230     C      0.955020000000     0.496740000000     0.361630000000    -0.00301648 
C231     C      0.963760000000     0.565670000000     0.366420000000    -0.00265822 
C232     C      0.947360000000     0.536230000000     0.244210000000    -0.0535286  
C233     C      0.021380000000     0.531630000000     0.224250000000    -0.0535087  
C234     C      0.974670000000     0.535340000000     0.270670000000     0.0612366  
C235     C      0.971720000000     0.498480000000     0.324220000000    -0.0312822  
C236     C      0.994100000000     0.532170000000     0.197850000000     0.0629035  
C237     C      0.993030000000     0.559120000000     0.138170000000    -0.0353216  
C238     C      0.956880000000     0.534540000000     0.208010000000    -0.0568635  
C239     C      0.014330000000     0.557690000000     0.102780000000     0.0217973  
C240     C      0.014370000000     0.486990000000     0.110100000000     0.00164044 
C241     C      0.011890000000     0.533040000000     0.260360000000    -0.0555333  
C242     C      0.052650000000     0.569140000000     0.109150000000     0.0510265  
C243     C      0.963650000000     0.858900000000     0.510420000000    -0.0262625  
C244     C      0.003090000000     0.661190000000     0.535060000000    -0.0187866  
C245     C      0.978540000000     0.629050000000     0.468930000000    -0.024082   
C246     C      0.997480000000     0.619520000000     0.530560000000    -0.0260833  
C247     C      0.950370000000     0.740310000000     0.528540000000    -0.0537988  
C248     C      0.015750000000     0.778630000000     0.514890000000    -0.053443   
C249     C      0.981170000000     0.721000000000     0.515920000000     0.0624192  
C250     C      0.984260000000     0.670750000000     0.473220000000    -0.0214237  
C251     C      0.985020000000     0.797910000000     0.527600000000     0.0625193  
C252     C      0.983960000000     0.846970000000     0.571830000000    -0.030058   
C253     C      0.952160000000     0.778460000000     0.534370000000    -0.0562221  
C254     C      0.992990000000     0.888060000000     0.577450000000     0.000251127
C255     C      0.972350000000     0.900130000000     0.514320000000    -0.0204076  
C256     C      0.013980000000     0.740540000000     0.509070000000    -0.0561535  
C257     C      0.032720000000     0.894730000000     0.573540000000     0.0599907  
C258     C      0.992460000000     0.179530000000     0.429560000000    -0.0260919  
C259     C      0.955100000000     0.368880000000     0.492440000000    -0.0230967  
C260     C      0.015150000000     0.408950000000     0.460420000000    -0.0181958  
C261     C      0.965520000000     0.408250000000     0.503610000000    -0.018031   
C262     C      0.995410000000     0.282770000000     0.488430000000    -0.0528185  
C263     C      0.949220000000     0.266190000000     0.430820000000    -0.0536704  
C264     C      0.979340000000     0.311600000000     0.468890000000     0.0616302  
C265     C      0.005740000000     0.369470000000     0.448950000000    -0.023054   
C266     C      0.965790000000     0.237410000000     0.449940000000     0.0634115  
C267     C      0.935850000000     0.179580000000     0.465140000000    -0.0314406  
C268     C      0.988570000000     0.245910000000     0.479270000000    -0.0566235  
C269     C      0.924030000000     0.142280000000     0.449200000000     0.00248464 
C270     C      0.982410000000     0.142230000000     0.412880000000    -0.0218803  
C271     C      0.955690000000     0.302960000000     0.440220000000    -0.0552167  
C272     C      0.896950000000     0.147690000000     0.420450000000     0.0474051  
C273     C      0.669980000000     0.040810000000     0.424350000000    -0.0231978  
C274     C      0.863760000000     0.022280000000     0.478530000000    -0.0251123  
C275     C      0.899940000000     0.044260000000     0.412440000000    -0.0234876  
C276     C      0.904560000000     0.013890000000     0.472270000000    -0.0248602  
C277     C      0.781940000000     0.999460000000     0.435270000000    -0.0525339  
C278     C      0.750770000000     0.061220000000     0.468540000000    -0.0530693  
C279     C      0.804870000000     0.027400000000     0.448460000000     0.0619289  
C280     C      0.859280000000     0.052200000000     0.419850000000    -0.0256617  
C281     C      0.727830000000     0.033250000000     0.455370000000     0.0630839  
C282     C      0.672250000000     0.007510000000     0.481140000000    -0.0282059  
C283     C      0.743740000000     0.002270000000     0.438580000000    -0.056701   
C284     C      0.630930000000     0.014430000000     0.486690000000     0.00470113 
C285     C      0.628870000000     0.048150000000     0.429810000000    -0.0172972  
C286     C      0.788990000000     0.058470000000     0.465100000000    -0.0546701  
C287     C      0.624790000000     0.046870000000     0.509810000000     0.0486845  
C288     C      0.370570000000     0.012970000000     0.427290000000    -0.0227314  
C289     C      0.185420000000     0.976970000000     0.498740000000    -0.0263347  
C290     C      0.139600000000     0.987210000000     0.435670000000    -0.0233256  
C291     C      0.143690000000     0.981460000000     0.502160000000    -0.0216603  
C292     C      0.256860000000     0.030520000000     0.463570000000    -0.0536294  
C293     C      0.297440000000     0.964870000000     0.461660000000    -0.0533975  
C294     C      0.238410000000     0.996530000000     0.464230000000     0.062012   
C295     C      0.181420000000     0.982300000000     0.433500000000    -0.0258766  
C296     C      0.315920000000     0.998830000000     0.461640000000     0.0628851  
C297     C      0.371740000000     0.018130000000     0.492130000000    -0.0276217  
C298     C      0.295290000000     0.031790000000     0.462060000000    -0.0565639  
C299     C      0.413720000000     0.013130000000     0.492230000000     0.00319893 
C300     C      0.412390000000     0.007620000000     0.426700000000    -0.0197544  
C301     C      0.259020000000     0.963590000000     0.462720000000    -0.0557194  
C302     C      0.423450000000     0.974420000000     0.500140000000     0.0488428  
C303     C      0.073400000000     0.840930000000     0.927480000000    -0.0259631  
C304     C      0.070120000000     0.652930000000     0.002070000000    -0.02175    
C305     C      0.027190000000     0.613700000000     0.949740000000    -0.0195416  
C306     C      0.054110000000     0.614450000000     0.008980000000    -0.0186831  
C307     C      0.036860000000     0.739600000000     0.979440000000    -0.0531435  
C308     C      0.106170000000     0.754130000000     0.950080000000    -0.0529941  
C309     C      0.059880000000     0.710100000000     0.970060000000     0.0623331  
C310     C      0.042940000000     0.652150000000     0.942140000000    -0.022409   
C311     C      0.083170000000     0.783610000000     0.959490000000     0.0630279  
C312     C      0.100060000000     0.841530000000     0.987660000000    -0.0301276  
C313     C      0.048290000000     0.776090000000     0.974240000000    -0.0560697  
C314     C      0.118230000000     0.879200000000     0.980690000000     0.00163051 
C315     C      0.091330000000     0.878110000000     0.918740000000    -0.021254   
C316     C      0.094740000000     0.717660000000     0.955250000000    -0.0558474  
C317     C      0.157510000000     0.874920000000     0.972160000000     0.0467622  
C318     C      0.999700000000     0.164710000000     0.022650000000    -0.0254936  
C319     C      0.987320000000     0.366930000000     0.030850000000    -0.0224055  
C320     C      0.036950000000     0.392290000000     0.976190000000    -0.0218682  
C321     C      0.001230000000     0.406760000000     0.029100000000    -0.019431   
C322     C      0.024850000000     0.280870000000     0.041110000000    -0.0538133  
C323     C      0.962990000000     0.252220000000     0.006310000000    -0.0527014  
C324     C      0.004200000000     0.303710000000     0.018500000000     0.062215   
C325     C      0.023420000000     0.352190000000     0.977590000000    -0.0220617  
C326     C      0.983590000000     0.229420000000     0.028980000000     0.0628165  
C327     C      0.959130000000     0.184870000000     0.071150000000    -0.0295378  
C328     C      0.014680000000     0.244020000000     0.046450000000    -0.0562836  
C329     C      0.941720000000     0.146270000000     0.073760000000    -0.00055066 
C330     C      0.983310000000     0.125790000000     0.023680000000    -0.0216067  
C331     C      0.973040000000     0.289090000000     0.001110000000    -0.0555222  
C332     C      0.905900000000     0.145330000000     0.055490000000     0.0597861  
C333     C      0.864150000000     0.068740000000     0.971690000000    -0.0293243  
C334     C      0.672310000000     0.012080000000     0.997280000000    -0.0214721  
C335     C      0.633350000000     0.047970000000     0.940050000000    -0.0227972  
C336     C      0.630350000000     0.015170000000     0.996680000000    -0.0237746  
C337     C      0.746140000000     0.072710000000     0.996110000000    -0.052231   
C338     C      0.787790000000     0.012990000000     0.971250000000    -0.0535042  
C339     C      0.728410000000     0.042880000000     0.979610000000     0.0622506  
C340     C      0.675400000000     0.044580000000     0.940200000000    -0.0214901  
C341     C      0.805430000000     0.042460000000     0.988410000000     0.0641444  
C342     C      0.855450000000     0.042230000000     0.031460000000    -0.0327942  
C343     C      0.784360000000     0.072710000000     0.000360000000    -0.0560581  
C344     C      0.897010000000     0.035630000000     0.035420000000     0.00504306 
C345     C      0.905720000000     0.062350000000     0.973900000000    -0.0157935  
C346     C      0.749630000000     0.013160000000     0.966680000000    -0.0550911  
C347     C      0.906240000000     0.996740000000     0.028300000000     0.0536308  
C348     C      0.376600000000     0.983790000000     0.965090000000    -0.0221555  
C349     C      0.188180000000     0.046970000000     0.001490000000    -0.0248152  
C350     C      0.149540000000     0.976700000000     0.007550000000    -0.0224886  
C351     C      0.146150000000     0.045170000000     0.999850000000    -0.022845   
C352     C      0.261000000000     0.012890000000     0.952700000000    -0.0516029  
C353     C      0.303980000000     0.018830000000     0.014430000000    -0.0523886  
C354     C      0.243830000000     0.014090000000     0.986210000000     0.0644181  
C355     C      0.191570000000     0.979440000000     0.008450000000    -0.0250545  
C356     C      0.321140000000     0.017150000000     0.980990000000     0.0629546  
C357     C      0.375260000000     0.050890000000     0.961130000000    -0.0272474  
C358     C      0.299370000000     0.014350000000     0.949980000000    -0.0539019  
C359     C      0.417250000000     0.052550000000     0.965870000000     0.00283053 
C360     C      0.418430000000     0.984530000000     0.969830000000    -0.0206498  
C361     C      0.265690000000     0.017410000000     0.017140000000    -0.0557278  
C362     C      0.426640000000     0.060290000000     0.003480000000     0.0498482  
C363     C      0.135000000000     0.017760000000     0.860830000000    -0.0264144  
C364     C      0.063570000000     0.921350000000     0.702240000000    -0.0252507  
C365     C      0.026490000000     0.982240000000     0.666260000000    -0.0253994  
C366     C      0.035680000000     0.914050000000     0.672370000000    -0.0242219  
C367     C      0.060660000000     0.964570000000     0.785300000000    -0.0537647  
C368     C      0.136980000000     0.972890000000     0.779560000000    -0.0529428  
C369     C      0.077370000000     0.962430000000     0.751630000000     0.0622536  
C370     C      0.054660000000     0.988290000000     0.696110000000    -0.0242343  
C371     C      0.120270000000     0.975000000000     0.813220000000     0.0623549  
C372     C      0.141470000000     0.951010000000     0.870170000000    -0.0300865  
C373     C      0.081810000000     0.970870000000     0.815890000000    -0.0556191  
C374     C      0.169410000000     0.957330000000     0.900390000000     0.00231659 
C375     C      0.163240000000     0.025780000000     0.890170000000    -0.0202037  
C376     C      0.115810000000     0.966730000000     0.748940000000    -0.0558126  
C377     C      0.207270000000     0.951490000000     0.887720000000     0.0537359  
C378     C      0.015170000000     0.074060000000     0.175070000000    -0.0262048  
C379     C      0.985640000000     0.012180000000     0.360010000000    -0.0255722  
C380     C      0.048210000000     0.046490000000     0.395540000000    -0.0206926  
C381     C      0.997800000000     0.999560000000     0.397240000000    -0.0229555  
C382     C      0.025520000000     0.015190000000     0.275910000000    -0.0536039  
C383     C      0.974550000000     0.070320000000     0.258670000000    -0.0533479  
C384     C      0.008310000000     0.035060000000     0.303350000000     0.0614192  
C385     C      0.035320000000     0.058110000000     0.358220000000    -0.0265475  
C386     C      0.991840000000     0.050520000000     0.231240000000     0.0627096  
C387     C      0.965430000000     0.028240000000     0.175670000000    -0.0304996  
C388     C      0.017440000000     0.022760000000     0.240130000000    -0.0563892  
C389     C      0.952500000000     0.040520000000     0.138370000000     0.00180386 
C390     C      0.003150000000     0.087990000000     0.138280000000    -0.0211042  
C391     C      0.982620000000     0.062750000000     0.294450000000    -0.055667   
C392     C      0.920150000000     0.064830000000     0.140840000000     0.0517035  
Cu1      Cu     0.995350000000     0.998080000000     0.977190000000     0.840078   
Cu2      Cu     0.063120000000     0.003830000000     0.985430000000     0.847615   
Cu3      Cu     0.021370000000     0.019570000000     0.514620000000     0.839753   
Cu4      Cu     0.033150000000     0.064070000000     0.564140000000     0.826185   
Cu5      Cu     0.022130000000     0.467450000000     0.987630000000     1.18538    
Cu6      Cu     0.037880000000     0.544220000000     0.981070000000     1.19383    
Cu7      Cu     0.988530000000     0.478730000000     0.480360000000     1.19531    
Cu8      Cu     0.996660000000     0.556730000000     0.487610000000     1.18004    
Cu9      Cu     0.486560000000     0.018380000000     0.956080000000     1.20169    
Cu10     Cu     0.564750000000     0.018310000000     0.958640000000     1.20689    
Cu11     Cu     0.481900000000     0.023370000000     0.456670000000     1.20911    
Cu12     Cu     0.560410000000     0.020990000000     0.454590000000     1.2187     
Cu13     Cu     0.572400000000     0.533690000000     0.056840000000     1.19572    
Cu14     Cu     0.494740000000     0.536050000000     0.055350000000     1.20749    
Cu15     Cu     0.480690000000     0.534430000000     0.557790000000     1.20823    
Cu16     Cu     0.558970000000     0.538520000000     0.556370000000     1.21099    
H1       H      0.528800000000     0.592730000000     0.760730000000     0.0426466  
H2       H      0.476630000000     0.569030000000     0.886010000000     0.0363067  
H3       H      0.593300000000     0.561340000000     0.883280000000     0.0420517  
H4       H      0.482140000000     0.485660000000     0.685400000000     0.0363328  
H5       H      0.500950000000     0.606850000000     0.934180000000     0.0388525  
H6       H      0.583030000000     0.522440000000     0.729190000000     0.0361786  
H7       H      0.466440000000     0.526720000000     0.734260000000     0.0371634  
H8       H      0.580750000000     0.522510000000     0.662680000000     0.037918   
H9       H      0.594680000000     0.556960000000     0.950580000000     0.0414016  
H10      H      0.533660000000     0.611430000000     0.823640000000     0.0480937  
H11      H      0.476890000000     0.567870000000     0.952310000000     0.0406001  
H12      H      0.526430000000     0.478240000000     0.792680000000     0.0465032  
H13      H      0.498300000000     0.528010000000     0.903690000000     0.0410817  
H14      H      0.462760000000     0.527370000000     0.667410000000     0.0461977  
H15      H      0.559550000000     0.562220000000     0.711080000000     0.0393933  
H16      H      0.490960000000     0.564820000000     0.714220000000     0.0421857  
H17      H      0.531070000000     0.496900000000     0.855520000000     0.0449878  
H18      H      0.567480000000     0.523570000000     0.901750000000     0.0446     
H19      H      0.559610000000     0.482590000000     0.682400000000     0.0362229  
H20      H      0.525460000000     0.462360000000     0.289330000000     0.0448329  
H21      H      0.457840000000     0.542340000000     0.381980000000     0.0358472  
H22      H      0.574160000000     0.553480000000     0.381740000000     0.0403327  
H23      H      0.493150000000     0.467230000000     0.177930000000     0.0347534  
H24      H      0.472740000000     0.583760000000     0.430690000000     0.0403332  
H25      H      0.583810000000     0.512170000000     0.231740000000     0.0363142  
H26      H      0.467380000000     0.505330000000     0.225160000000     0.0352977  
H27      H      0.588410000000     0.514240000000     0.165070000000     0.0388549  
H28      H      0.574540000000     0.550790000000     0.448760000000     0.035689   
H29      H      0.521040000000     0.480520000000     0.352370000000     0.0410492  
H30      H      0.457370000000     0.540570000000     0.448920000000     0.0406978  
H31      H      0.519060000000     0.576900000000     0.258080000000     0.0438281  
H32      H      0.485690000000     0.505790000000     0.400520000000     0.0376996  
H33      H      0.470400000000     0.506480000000     0.158660000000     0.0380655  
H34      H      0.558910000000     0.550330000000     0.212270000000     0.0413626  
H35      H      0.489880000000     0.546180000000     0.208150000000     0.0400842  
H36      H      0.514410000000     0.595060000000     0.321150000000     0.0493571  
H37      H      0.553710000000     0.512670000000     0.400490000000     0.0388617  
H38      H      0.568970000000     0.471980000000     0.181800000000     0.0349573  
H39      H      0.514640000000     0.716680000000     0.476270000000     0.0477875  
H40      H      0.456940000000     0.848720000000     0.457430000000     0.039526   
H41      H      0.573910000000     0.843960000000     0.456960000000     0.0409352  
H42      H      0.477440000000     0.676320000000     0.600180000000     0.0391179  
H43      H      0.479780000000     0.883540000000     0.406290000000     0.0411824  
H44      H      0.572520000000     0.714620000000     0.551160000000     0.0367595  
H45      H      0.455700000000     0.710270000000     0.548000000000     0.0369516  
H46      H      0.575320000000     0.649530000000     0.572750000000     0.039939   
H47      H      0.576950000000     0.910610000000     0.438750000000     0.0404639  
H48      H      0.514900000000     0.771280000000     0.437310000000     0.0506666  
H49      H      0.458250000000     0.914370000000     0.437360000000     0.045719   
H50      H      0.513280000000     0.787390000000     0.569030000000     0.0458799  
H51      H      0.481460000000     0.878240000000     0.488180000000     0.0469664  
H52      H      0.456610000000     0.644830000000     0.569040000000     0.0428666  
H53      H      0.551460000000     0.682740000000     0.520150000000     0.0440777  
H54      H      0.480750000000     0.680160000000     0.518180000000     0.041664   
H55      H      0.513990000000     0.841930000000     0.530170000000     0.0432156  
H56      H      0.552090000000     0.875140000000     0.487770000000     0.0405493  
H57      H      0.550020000000     0.679360000000     0.602260000000     0.0359729  
H58      H      0.529790000000     0.331680000000     0.466800000000     0.0413946  
H59      H      0.586300000000     0.199530000000     0.484170000000     0.0374488  
H60      H      0.469650000000     0.204400000000     0.486060000000     0.0398459  
H61      H      0.569740000000     0.403900000000     0.576200000000     0.0376093  
H62      H      0.566750000000     0.154880000000     0.440470000000     0.040639   
H63      H      0.471580000000     0.353790000000     0.535960000000     0.0350593  
H64      H      0.588110000000     0.358780000000     0.532230000000     0.0360724  
H65      H      0.468400000000     0.422650000000     0.541180000000     0.0379096  
H66      H      0.467090000000     0.134730000000     0.480900000000     0.0389722  
H67      H      0.528920000000     0.268150000000     0.443820000000     0.0482651  
H68      H      0.583780000000     0.130430000000     0.478700000000     0.045985   
H69      H      0.531500000000     0.289910000000     0.574730000000     0.0455848  
H70      H      0.561160000000     0.177010000000     0.519570000000     0.040503   
H71      H      0.585620000000     0.427990000000     0.537210000000     0.0415112  
H72      H      0.493830000000     0.377960000000     0.499740000000     0.0379343  
H73      H      0.561540000000     0.380820000000     0.497540000000     0.0379765  
H74      H      0.530480000000     0.226370000000     0.551730000000     0.0420812  
H75      H      0.494000000000     0.179550000000     0.520190000000     0.0387551  
H76      H      0.489150000000     0.400210000000     0.578900000000     0.0358166  
H77      H      0.532130000000     0.839460000000     0.034970000000     0.0493819  
H78      H      0.477220000000     0.709800000000     0.057880000000     0.0365624  
H79      H      0.594160000000     0.709940000000     0.053210000000     0.043153   
H80      H      0.492550000000     0.876380000000     0.910030000000     0.0360409  
H81      H      0.501280000000     0.675770000000     0.109060000000     0.0414054  
H82      H      0.588800000000     0.844160000000     0.960620000000     0.0383806  
H83      H      0.471900000000     0.841880000000     0.962400000000     0.0364902  
H84      H      0.588170000000     0.909110000000     0.938300000000     0.0430068  
H85      H      0.595400000000     0.643460000000     0.072850000000     0.0380091  
H86      H      0.534620000000     0.785350000000     0.074530000000     0.0514842  
H87      H      0.476910000000     0.645010000000     0.079990000000     0.0383013  
H88      H      0.531330000000     0.767590000000     0.943050000000     0.0475839  
H89      H      0.499290000000     0.678540000000     0.026960000000     0.0401567  
H90      H      0.469380000000     0.907020000000     0.940390000000     0.0384439  
H91      H      0.565600000000     0.875110000000     0.991050000000     0.0454048  
H92      H      0.494850000000     0.873650000000     0.992190000000     0.0416667  
H93      H      0.533600000000     0.713510000000     0.982560000000     0.0468555  
H94      H      0.569690000000     0.678930000000     0.024200000000     0.0449656  
H95      H      0.564930000000     0.877560000000     0.908910000000     0.0360718  
H96      H      0.525010000000     0.241730000000     0.061060000000     0.0455779  
H97      H      0.470730000000     0.360360000000     0.008950000000     0.0358225  
H98      H      0.587420000000     0.356760000000     0.010910000000     0.0406087  
H99      H      0.484170000000     0.136800000000     0.020940000000     0.0426339  
H100     H      0.490320000000     0.419300000000     0.985680000000     0.0406144  
H101     H      0.584840000000     0.195340000000     0.002200000000     0.0369252  
H102     H      0.468340000000     0.196190000000     0.996200000000     0.0362313  
H103     H      0.585740000000     0.129130000000     0.982120000000     0.0399516  
H104     H      0.588760000000     0.423070000000     0.032060000000     0.0375472  
H105     H      0.526170000000     0.309560000000     0.062900000000     0.0412003  
H106     H      0.471840000000     0.426380000000     0.029580000000     0.0395718  
H107     H      0.528980000000     0.244980000000     0.945950000000     0.0432609  
H108     H      0.494850000000     0.367300000000     0.050520000000     0.0371443  
H109     H      0.468750000000     0.130020000000     0.975880000000     0.0409932  
H110     H      0.562530000000     0.187640000000     0.959800000000     0.0406835  
H111     H      0.495000000000     0.188150000000     0.956310000000     0.0391417  
H112     H      0.529940000000     0.312840000000     0.947780000000     0.0487147  
H113     H      0.562340000000     0.365620000000     0.051320000000     0.0381962  
H114     H      0.565410000000     0.136280000000     0.025250000000     0.0375241  
H115     H      0.529840000000     0.071090000000     0.660230000000     0.0426334  
H116     H      0.470440000000     0.043000000000     0.782990000000     0.0364264  
H117     H      0.587230000000     0.038580000000     0.784550000000     0.0404918  
H118     H      0.483860000000     0.966300000000     0.581860000000     0.0395714  
H119     H      0.490610000000     0.081300000000     0.832370000000     0.0408257  
H120     H      0.584120000000     0.000530000000     0.628120000000     0.0370439  
H121     H      0.467520000000     0.006360000000     0.631330000000     0.0361659  
H122     H      0.582980000000     0.002340000000     0.561420000000     0.04244    
H123     H      0.586070000000     0.034410000000     0.851770000000     0.0369937  
H124     H      0.531090000000     0.088590000000     0.723630000000     0.0484228  
H125     H      0.468320000000     0.040800000000     0.849520000000     0.0421863  
H126     H      0.525400000000     0.956040000000     0.689980000000     0.0454471  
H127     H      0.492820000000     0.002690000000     0.801270000000     0.0390475  
H128     H      0.464970000000     0.008570000000     0.564710000000     0.0405464  
H129     H      0.561630000000     0.041180000000     0.610650000000     0.0427312  
H130     H      0.492860000000     0.044630000000     0.612590000000     0.0392561  
H131     H      0.526780000000     0.973510000000     0.753330000000     0.0418248  
H132     H      0.561420000000     0.000350000000     0.802110000000     0.0392443  
H133     H      0.560830000000     0.962330000000     0.579860000000     0.0356811  
H134     H      0.513930000000     0.970760000000     0.254570000000     0.0443393  
H135     H      0.459150000000     0.996590000000     0.127730000000     0.0383737  
H136     H      0.575970000000     0.993590000000     0.132260000000     0.0412252  
H137     H      0.481540000000     0.082210000000     0.330440000000     0.040975   
H138     H      0.480390000000     0.955540000000     0.080650000000     0.0399529  
H139     H      0.575440000000     0.037850000000     0.280920000000     0.0370399  
H140     H      0.458720000000     0.042040000000     0.283390000000     0.0363523  
H141     H      0.577800000000     0.038440000000     0.347470000000     0.039851   
H142     H      0.578870000000     0.995900000000     0.065170000000     0.0357514  
H143     H      0.514160000000     0.950390000000     0.191980000000     0.0495892  
H144     H      0.460720000000     0.996290000000     0.061220000000     0.0466851  
H145     H      0.518050000000     0.084400000000     0.220060000000     0.0462876  
H146     H      0.484770000000     0.034970000000     0.109520000000     0.0438465  
H147     H      0.459480000000     0.042730000000     0.350110000000     0.0399148  
H148     H      0.550710000000     0.999830000000     0.300900000000     0.0421228  
H149     H      0.481540000000     0.002310000000     0.302340000000     0.0398731  
H150     H      0.518160000000     0.064080000000     0.157530000000     0.0426717  
H151     H      0.553920000000     0.033020000000     0.112440000000     0.040006   
H152     H      0.557700000000     0.079460000000     0.328780000000     0.0374087  
H153     H      0.734560000000     0.531650000000     0.545150000000     0.0423971  
H154     H      0.832450000000     0.628030000000     0.505370000000     0.0348778  
H155     H      0.840180000000     0.597340000000     0.614910000000     0.0405664  
H156     H      0.611070000000     0.596620000000     0.534040000000     0.0410016  
H157     H      0.896430000000     0.612050000000     0.516400000000     0.0503412  
H158     H      0.678810000000     0.560450000000     0.615240000000     0.0333524  
H159     H      0.672460000000     0.593700000000     0.506860000000     0.0340711  
H160     H      0.619310000000     0.526640000000     0.608310000000     0.0351982  
H161     H      0.901800000000     0.632200000000     0.618280000000     0.0323577  
H162     H      0.800800000000     0.545090000000     0.544290000000     0.0489759  
H163     H      0.894070000000     0.661520000000     0.510900000000     0.0367438  
H164     H      0.712410000000     0.643950000000     0.577230000000     0.044856   
H165     H      0.833270000000     0.664090000000     0.538710000000     0.0356995  
H166     H      0.612890000000     0.560560000000     0.500970000000     0.0373632  
H167     H      0.680170000000     0.524820000000     0.581470000000     0.0367065  
H168     H      0.676110000000     0.544850000000     0.516160000000     0.0364528  
H169     H      0.778670000000     0.657390000000     0.576280000000     0.0411926  
H170     H      0.838230000000     0.645620000000     0.603750000000     0.0372471  
H171     H      0.614580000000     0.575610000000     0.600630000000     0.0384907  
H172     H      0.238360000000     0.534110000000     0.630430000000     0.0413346  
H173     H      0.362970000000     0.472730000000     0.591660000000     0.0333457  
H174     H      0.352950000000     0.586170000000     0.564350000000     0.0376284  
H175     H      0.138070000000     0.467050000000     0.560850000000     0.0402077  
H176     H      0.420020000000     0.504710000000     0.608390000000     0.0413891  
H177     H      0.189580000000     0.571550000000     0.558570000000     0.0348878  
H178     H      0.197580000000     0.458880000000     0.589940000000     0.0340868  
H179     H      0.121940000000     0.571120000000     0.577150000000     0.0348854  
H180     H      0.419210000000     0.585960000000     0.544160000000     0.0299206  
H181     H      0.305670000000     0.540060000000     0.633000000000     0.0472527  
H182     H      0.428750000000     0.473640000000     0.571990000000     0.0326238  
H183     H      0.245460000000     0.504190000000     0.519130000000     0.0448223  
H184     H      0.368720000000     0.485220000000     0.545290000000     0.0358336  
H185     H      0.129780000000     0.460570000000     0.608030000000     0.0326436  
H186     H      0.181850000000     0.560380000000     0.604980000000     0.03647    
H187     H      0.186630000000     0.492620000000     0.623840000000     0.0358414  
H188     H      0.312690000000     0.510350000000     0.521610000000     0.0411068  
H189     H      0.362890000000     0.554010000000     0.529000000000     0.0372961  
H190     H      0.132860000000     0.540890000000     0.540240000000     0.0418004  
H191     H      0.736860000000     0.509660000000     0.019640000000     0.0434346  
H192     H      0.864480000000     0.571090000000     0.051620000000     0.0357821  
H193     H      0.849950000000     0.459370000000     0.084330000000     0.0390496  
H194     H      0.637310000000     0.579220000000     0.085260000000     0.0388616  
H195     H      0.917080000000     0.537360000000     0.028650000000     0.0439877  
H196     H      0.690440000000     0.480140000000     0.098300000000     0.0337011  
H197     H      0.697430000000     0.588760000000     0.056250000000     0.0355305  
H198     H      0.624050000000     0.477510000000     0.080580000000     0.0332409  
H199     H      0.919420000000     0.455800000000     0.096820000000     0.0288755  
H200     H      0.803670000000     0.501870000000     0.014830000000     0.0493838  
H201     H      0.933260000000     0.565280000000     0.065320000000     0.0356095  
H202     H      0.749540000000     0.548410000000     0.127970000000     0.0455281  
H203     H      0.875020000000     0.558480000000     0.097190000000     0.0349604  
H204     H      0.631140000000     0.584820000000     0.037720000000     0.0367104  
H205     H      0.683700000000     0.484840000000     0.050690000000     0.0390081  
H206     H      0.688240000000     0.552330000000     0.024520000000     0.0390247  
H207     H      0.816560000000     0.540020000000     0.123230000000     0.0410292  
H208     H      0.866960000000     0.492600000000     0.116030000000     0.035854   
H209     H      0.633730000000     0.515200000000     0.110640000000     0.03782    
H210     H      0.329020000000     0.522460000000     0.014290000000     0.0418427  
H211     H      0.204030000000     0.511470000000     0.079900000000     0.0350155  
H212     H      0.216570000000     0.611500000000     0.021320000000     0.0394325  
H213     H      0.429710000000     0.532150000000     0.107170000000     0.0365643  
H214     H      0.150570000000     0.517620000000     0.041700000000     0.0434841  
H215     H      0.377360000000     0.602820000000     0.038330000000     0.0333679  
H216     H      0.369410000000     0.502880000000     0.097120000000     0.0329221  
H217     H      0.443470000000     0.589010000000     0.025490000000     0.0341773  
H218     H      0.147780000000     0.624940000000     0.032740000000     0.0320933  
H219     H      0.262110000000     0.525790000000     0.006190000000     0.0478654  
H220     H      0.135790000000     0.525330000000     0.087090000000     0.042611   
H221     H      0.319790000000     0.586310000000     0.111230000000     0.0450799  
H222     H      0.194590000000     0.554860000000     0.101980000000     0.0395509  
H223     H      0.435720000000     0.489360000000     0.083110000000     0.032245   
H224     H      0.383530000000     0.560360000000     0.013600000000     0.037265   
H225     H      0.378400000000     0.498730000000     0.049820000000     0.0369041  
H226     H      0.252750000000     0.589520000000     0.103130000000     0.0422031  
H227     H      0.202490000000     0.613810000000     0.067300000000     0.0388571  
H228     H      0.433870000000     0.591490000000     0.072750000000     0.0382222  
H229     H      0.101690000000     0.476330000000     0.752800000000     0.0449189  
H230     H      0.032910000000     0.553210000000     0.661210000000     0.0363617  
H231     H      0.016150000000     0.437690000000     0.652930000000     0.039952   
H232     H      0.099100000000     0.518850000000     0.859970000000     0.0394036  
H233     H      0.991370000000     0.549530000000     0.612450000000     0.0463695  
H234     H      0.039710000000     0.430760000000     0.814940000000     0.0361132  
H235     H      0.067680000000     0.544420000000     0.808380000000     0.035892   
H236     H      0.034640000000     0.435550000000     0.881600000000     0.0400175  
H237     H      0.017280000000     0.443900000000     0.584950000000     0.0362156  
H238     H      0.086810000000     0.480430000000     0.688800000000     0.0417025  
H239     H      0.035870000000     0.557200000000     0.593440000000     0.0378827  
H240     H      0.988360000000     0.499470000000     0.778880000000     0.0424112  
H241     H      0.066640000000     0.524010000000     0.640180000000     0.0426636  
H242     H      0.064000000000     0.550350000000     0.874570000000     0.0422374  
H243     H      0.006510000000     0.464580000000     0.829610000000     0.0395893  
H244     H      0.023150000000     0.531790000000     0.825910000000     0.0390498  
H245     H      0.973510000000     0.503130000000     0.715060000000     0.0497535  
H246     H      0.056340000000     0.459040000000     0.634290000000     0.0383788  
H247     H      0.080180000000     0.444110000000     0.864840000000     0.0366349  
H248     H      0.033540000000     0.531690000000     0.280170000000     0.0415443  
H249     H      0.002080000000     0.469860000000     0.163960000000     0.0348677  
H250     H      0.997920000000     0.586180000000     0.151620000000     0.0397393  
H251     H      0.924520000000     0.497370000000     0.359130000000     0.0366452  
H252     H      0.043580000000     0.479910000000     0.115760000000     0.036993   
H253     H      0.973160000000     0.592080000000     0.315440000000     0.0356274  
H254     H      0.959520000000     0.475850000000     0.307910000000     0.0351085  
H255     H      0.978060000000     0.587420000000     0.382120000000     0.0376179  
H256     H      0.001820000000     0.578190000000     0.084250000000     0.0345609  
H257     H      0.050090000000     0.529450000000     0.216750000000     0.0479276  
H258     H      0.001880000000     0.462650000000     0.096610000000     0.038148   
H259     H      0.918610000000     0.537560000000     0.251730000000     0.0445792  
H260     H      0.964060000000     0.491560000000     0.141390000000     0.0406108  
H261     H      0.962740000000     0.469910000000     0.374010000000     0.0414005  
H262     H      0.010180000000     0.562660000000     0.330350000000     0.0385983  
H263     H      0.001960000000     0.493690000000     0.326100000000     0.0387083  
H264     H      0.935310000000     0.534570000000     0.188060000000     0.0411399  
H265     H      0.962970000000     0.557240000000     0.132570000000     0.0403494  
H266     H      0.934150000000     0.573260000000     0.364820000000     0.0353486  
H267     H      0.038240000000     0.726360000000     0.499410000000     0.0418575  
H268     H      0.967800000000     0.850880000000     0.482000000000     0.0345547  
H269     H      0.002510000000     0.829710000000     0.588680000000     0.0382511  
H270     H      0.949300000000     0.621840000000     0.474060000000     0.0377039  
H271     H      0.999670000000     0.906180000000     0.502290000000     0.0435204  
H272     H      0.996800000000     0.668650000000     0.563260000000     0.0354392  
H273     H      0.964140000000     0.685360000000     0.455810000000     0.032101   
H274     H      0.018130000000     0.605360000000     0.547530000000     0.0371498  
H275     H      0.984660000000     0.896440000000     0.604820000000     0.0369202  
H276     H      0.041210000000     0.793220000000     0.509640000000     0.0480968  
H277     H      0.951220000000     0.916880000000     0.500260000000     0.0345904  
H278     H      0.924980000000     0.725680000000     0.534020000000     0.047204   
H279     H      0.934260000000     0.854040000000     0.517460000000     0.03639    
H280     H      0.985170000000     0.621680000000     0.440920000000     0.0353005  
H281     H      0.032480000000     0.667940000000     0.529670000000     0.0357042  
H282     H      0.012540000000     0.677960000000     0.464130000000     0.0363884  
H283     H      0.928030000000     0.792720000000     0.544260000000     0.0412277  
H284     H      0.955200000000     0.841780000000     0.580850000000     0.0372556  
H285     H      0.969570000000     0.611410000000     0.539800000000     0.0469843  
H286     H      0.942490000000     0.324610000000     0.424930000000     0.0420713  
H287     H      0.008850000000     0.195610000000     0.409820000000     0.0347312  
H288     H      0.910960000000     0.195990000000     0.472300000000     0.0401354  
H289     H      0.036520000000     0.408670000000     0.481720000000     0.0367641  
H290     H      0.970350000000     0.146580000000     0.385910000000     0.0415393  
H291     H      0.944160000000     0.354050000000     0.516230000000     0.0362438  
H292     H      0.031650000000     0.355140000000     0.441250000000     0.0337381  
H293     H      0.940370000000     0.423070000000     0.512420000000     0.0398663  
H294     H      0.911190000000     0.125000000000     0.470320000000     0.0343962  
H295     H      0.931300000000     0.260020000000     0.408470000000     0.0485081  
H296     H      0.007490000000     0.124960000000     0.410190000000     0.0370063  
H297     H      0.013380000000     0.288940000000     0.510730000000     0.0454852  
H298     H      0.009850000000     0.174660000000     0.453600000000     0.0383546  
H299     H      0.026220000000     0.424050000000     0.436930000000     0.0336373  
H300     H      0.932960000000     0.370290000000     0.471910000000     0.038935   
H301     H      0.987550000000     0.370850000000     0.425040000000     0.0369085  
H302     H      0.001210000000     0.224140000000     0.494840000000     0.0437112  
H303     H      0.951640000000     0.174550000000     0.490190000000     0.0402649  
H304     H      0.985160000000     0.407410000000     0.526410000000     0.0406952  
H305     H      0.806080000000     0.080580000000     0.475300000000     0.0431264  
H306     H      0.681970000000     0.064400000000     0.409200000000     0.034904   
H307     H      0.686290000000     0.006150000000     0.507580000000     0.0376672  
H308     H      0.902510000000     0.018750000000     0.396070000000     0.0372954  
H309     H      0.624670000000     0.075700000000     0.442300000000     0.0409301  
H310     H      0.851960000000     0.000090000000     0.495640000000     0.0354723  
H311     H      0.844180000000     0.052020000000     0.393970000000     0.038567   
H312     H      0.920110000000     0.017020000000     0.497610000000     0.0473048  
H313     H      0.619340000000     0.989800000000     0.500330000000     0.030601   
H314     H      0.738930000000     0.085250000000     0.481400000000     0.0482528  
H315     H      0.615520000000     0.048530000000     0.403220000000     0.0351992  
H316     H      0.793770000000     0.975510000000     0.422250000000     0.0452433  
H317     H      0.673390000000     0.015250000000     0.408100000000     0.0375663  
H318     H      0.912510000000     0.067610000000     0.397570000000     0.0437566  
H319     H      0.861300000000     0.049030000000     0.493040000000     0.0380289  
H320     H      0.856560000000     0.080160000000     0.431930000000     0.04341    
H321     H      0.726680000000     0.980340000000     0.427980000000     0.0424891  
H322     H      0.675740000000     0.980160000000     0.467910000000     0.0377466  
H323     H      0.907820000000     0.985040000000     0.462550000000     0.0384372  
H324     H      0.245450000000     0.936970000000     0.462660000000     0.042118   
H325     H      0.358490000000     0.997470000000     0.404440000000     0.0337843  
H326     H      0.360010000000     0.006970000000     0.517440000000     0.0375559  
H327     H      0.132600000000     0.017110000000     0.434700000000     0.0420837  
H328     H      0.419120000000     0.977670000000     0.425960000000     0.0410991  
H329     H      0.198620000000     0.988790000000     0.523030000000     0.0363469  
H330     H      0.191740000000     0.997960000000     0.409940000000     0.0340733  
H331     H      0.133140000000     0.963260000000     0.523730000000     0.0454413  
H332     H      0.424980000000     0.030780000000     0.513880000000     0.0310005  
H333     H      0.312950000000     0.939310000000     0.460970000000     0.0473397  
H334     H      0.423080000000     0.020410000000     0.401900000000     0.0361034  
H335     H      0.241360000000     0.056070000000     0.464350000000     0.0452353  
H336     H      0.364020000000     0.042840000000     0.423840000000     0.0372488  
H337     H      0.126090000000     0.973090000000     0.412830000000     0.0355126  
H338     H      0.192070000000     0.946960000000     0.497520000000     0.0386933  
H339     H      0.187940000000     0.952510000000     0.429500000000     0.0375754  
H340     H      0.308860000000     0.058410000000     0.461520000000     0.0418059  
H341     H      0.365460000000     0.048240000000     0.491180000000     0.0371619  
H342     H      0.137020000000     0.010610000000     0.508870000000     0.045303   
H343     H      0.113080000000     0.695410000000     0.947730000000     0.043677   
H344     H      0.071170000000     0.824620000000     0.902360000000     0.0357719  
H345     H      0.117020000000     0.825460000000     0.007010000000     0.0403122  
H346     H      0.998800000000     0.616240000000     0.960610000000     0.0390956  
H347     H      0.117210000000     0.873490000000     0.903530000000     0.0411977  
H348     H      0.070760000000     0.668380000000     0.027770000000     0.0359125  
H349     H      0.023700000000     0.667060000000     0.924050000000     0.0340357  
H350     H      0.072710000000     0.599150000000     0.027240000000     0.0446516  
H351     H      0.115900000000     0.896450000000     0.005070000000     0.0386326  
H352     H      0.133060000000     0.759510000000     0.938720000000     0.048694   
H353     H      0.072440000000     0.895040000000     0.902160000000     0.0345718  
H354     H      0.009990000000     0.734220000000     0.990840000000     0.0461079  
H355     H      0.045130000000     0.845840000000     0.937970000000     0.0392836  
H356     H      0.025860000000     0.597860000000     0.924380000000     0.0353091  
H357     H      0.098850000000     0.649940000000     0.992170000000     0.0395776  
H358     H      0.069880000000     0.649080000000     0.928250000000     0.0395854  
H359     H      0.029980000000     0.798380000000     0.981730000000     0.043279   
H360     H      0.072650000000     0.846280000000     0.000180000000     0.0391359  
H361     H      0.026690000000     0.616880000000     0.022020000000     0.0389264  
H362     H      0.956340000000     0.306230000000     0.983830000000     0.0436922  
H363     H      0.008600000000     0.170740000000     0.994800000000     0.0352899  
H364     H      0.938630000000     0.206160000000     0.079340000000     0.0401983  
H365     H      0.063540000000     0.394680000000     0.990710000000     0.0408907  
H366     H      0.962370000000     0.122960000000     0.002240000000     0.050761   
H367     H      0.982860000000     0.359500000000     0.059390000000     0.0338694  
H368     H      0.045510000000     0.333890000000     0.967040000000     0.0335486  
H369     H      0.979530000000     0.425200000000     0.039780000000     0.0400914  
H370     H      0.937200000000     0.139220000000     0.102260000000     0.0414289  
H371     H      0.938880000000     0.241390000000     0.992890000000     0.0484935  
H372     H      0.005270000000     0.105010000000     0.019220000000     0.0436425  
H373     H      0.048690000000     0.291810000000     0.054890000000     0.0448617  
H374     H      0.024370000000     0.165680000000     0.040290000000     0.0367648  
H375     H      0.041610000000     0.400070000000     0.947880000000     0.0359971  
H376     H      0.960460000000     0.365020000000     0.016610000000     0.0430578  
H377     H      0.998800000000     0.349390000000     0.960090000000     0.0383313  
H378     H      0.030880000000     0.227050000000     0.064330000000     0.0410749  
H379     H      0.982670000000     0.186470000000     0.090170000000     0.0367344  
H380     H      0.026280000000     0.409950000000     0.045950000000     0.0370751  
H381     H      0.736680000000     0.989890000000     0.953550000000     0.0425547  
H382     H      0.855620000000     0.066510000000     0.943210000000     0.0372526  
H383     H      0.840040000000     0.020970000000     0.046980000000     0.042877   
H384     H      0.625130000000     0.074800000000     0.952110000000     0.0407612  
H385     H      0.913040000000     0.036450000000     0.959600000000     0.0359241  
H386     H      0.681680000000     0.012780000000     0.025590000000     0.0349413  
H387     H      0.687210000000     0.069110000000     0.926420000000     0.0349536  
H388     H      0.618990000000     0.990120000000     0.009740000000     0.0384133  
H389     H      0.905620000000     0.042300000000     0.063140000000     0.0452376  
H390     H      0.803700000000     0.989710000000     0.961650000000     0.0485054  
H391     H      0.920590000000     0.085690000000     0.961170000000     0.0404404  
H392     H      0.730200000000     0.095830000000     0.006020000000     0.0469395  
H393     H      0.857630000000     0.097160000000     0.981170000000     0.0467958  
H394     H      0.623680000000     0.047440000000     0.911950000000     0.0369064  
H395     H      0.680420000000     0.985020000000     0.985490000000     0.0378082  
H396     H      0.683570000000     0.019330000000     0.925130000000     0.0373008  
H397     H      0.797380000000     0.096060000000     0.013270000000     0.0484249  
H398     H      0.848710000000     0.069670000000     0.043180000000     0.0492068  
H399     H      0.621280000000     0.039930000000     0.011950000000     0.0383345  
H400     H      0.253190000000     0.018800000000     0.043350000000     0.0422048  
H401     H      0.365490000000     0.959450000000     0.979730000000     0.0355587  
H402     H      0.362570000000     0.076450000000     0.972280000000     0.0370489  
H403     H      0.140120000000     0.968920000000     0.980340000000     0.0426891  
H404     H      0.425300000000     0.983200000000     0.998730000000     0.0430098  
H405     H      0.197570000000     0.070550000000     0.984720000000     0.0349721  
H406     H      0.203220000000     0.953810000000     0.996510000000     0.0435918  
H407     H      0.134000000000     0.069570000000     0.013440000000     0.0376809  
H408     H      0.427830000000     0.075670000000     0.949300000000     0.0303146  
H409     H      0.320420000000     0.021120000000     0.038470000000     0.0475594  
H410     H      0.429970000000     0.959660000000     0.956730000000     0.0350195  
H411     H      0.244580000000     0.010810000000     0.928660000000     0.0548915  
H412     H      0.369880000000     0.980600000000     0.936210000000     0.0383977  
H413     H      0.140110000000     0.955310000000     0.026720000000     0.0402324  
H414     H      0.196770000000     0.052240000000     0.029600000000     0.0375315  
H415     H      0.200610000000     0.981070000000     0.036820000000     0.0384868  
H416     H      0.312010000000     0.013180000000     0.923820000000     0.0451383  
H417     H      0.368660000000     0.049870000000     0.932080000000     0.037559   
H418     H      0.136920000000     0.044990000000     0.971550000000     0.0379356  
H419     H      0.129390000000     0.965390000000     0.723240000000     0.0428477  
H420     H      0.136630000000     0.040160000000     0.840510000000     0.0357133  
H421     H      0.147370000000     0.924210000000     0.856660000000     0.0400397  
H422     H      0.998170000000     0.983370000000     0.677450000000     0.0425506  
H423     H      0.190670000000     0.030860000000     0.877980000000     0.0413812  
H424     H      0.062520000000     0.897920000000     0.721470000000     0.034964   
H425     H      0.047150000000     0.013910000000     0.710860000000     0.0353917  
H426     H      0.044760000000     0.890240000000     0.655860000000     0.0379573  
H427     H      0.164030000000     0.937460000000     0.922320000000     0.0432822  
H428     H      0.166500000000     0.976130000000     0.777090000000     0.0481393  
H429     H      0.155000000000     0.050730000000     0.905460000000     0.0356983  
H430     H      0.031120000000     0.961470000000     0.787760000000     0.0463973  
H431     H      0.106870000000     0.018010000000     0.872670000000     0.043944   
H432     H      0.029330000000     0.004110000000     0.645680000000     0.0489217  
H433     H      0.091700000000     0.922480000000     0.690470000000     0.0391213  
H434     H      0.082400000000     0.992280000000     0.684050000000     0.0402471  
H435     H      0.068190000000     0.972570000000     0.841540000000     0.041511   
H436     H      0.113520000000     0.949010000000     0.882120000000     0.0456501  
H437     H      0.008350000000     0.907520000000     0.684140000000     0.0388543  
H438     H      0.968910000000     0.078520000000     0.315110000000     0.0425677  
H439     H      0.027550000000     0.097550000000     0.190040000000     0.0348517  
H440     H      0.941500000000     0.017730000000     0.191270000000     0.0406189  
H441     H      0.071550000000     0.026770000000     0.393200000000     0.0391755  
H442     H      0.985940000000     0.113160000000     0.141440000000     0.0432955  
H443     H      0.973490000000     0.988110000000     0.345750000000     0.0343473  
H444     H      0.059680000000     0.067560000000     0.342690000000     0.0335762  
H445     H      0.973440000000     0.992440000000     0.413750000000     0.0369122  
H446     H      0.944700000000     0.015830000000     0.122460000000     0.0379632  
H447     H      0.954810000000     0.091740000000     0.252240000000     0.0486541  
H448     H      0.027630000000     0.095140000000     0.121910000000     0.037989   
H449     H      0.045330000000     0.993830000000     0.282340000000     0.0450616  
H450     H      0.036600000000     0.052340000000     0.171620000000     0.038067   
H451     H      0.057570000000     0.071040000000     0.410850000000     0.0397246  
H452     H      0.964040000000     0.033780000000     0.362830000000     0.0387241  
H453     H      0.015860000000     0.081710000000     0.360720000000     0.036899   
H454     H      0.031200000000     0.007070000000     0.219450000000     0.0421318  
H455     H      0.985200000000     0.004940000000     0.172490000000     0.0393138  
H456     H      0.015600000000     0.974680000000     0.394910000000     0.0373508  
N1       N      0.536410000000     0.566390000000     0.956280000000    -0.182363   
N2       N      0.535000000000     0.567890000000     0.880850000000    -0.110522   
N3       N      0.524790000000     0.521670000000     0.735550000000    -0.113067   
N4       N      0.521320000000     0.520200000000     0.660310000000    -0.181242   
N5       N      0.589000000000     0.647050000000     0.932700000000    -0.110005   
N6       N      0.515490000000     0.552010000000     0.453780000000    -0.182955   
N7       N      0.515620000000     0.551280000000     0.378170000000    -0.110431   
N8       N      0.525500000000     0.506210000000     0.232370000000    -0.113196   
N9       N      0.529970000000     0.507010000000     0.157090000000    -0.182086   
N10      N      0.556540000000     0.638680000000     0.428680000000    -0.109701   
N11      N      0.517850000000     0.916430000000     0.435200000000    -0.182182   
N12      N      0.515190000000     0.841900000000     0.456930000000    -0.110453   
N13      N      0.513940000000     0.716890000000     0.549520000000    -0.113102   
N14      N      0.516040000000     0.643060000000     0.572690000000    -0.182285   
N15      N      0.559770000000     0.865000000000     0.363290000000    -0.106031   
N16      N      0.525000000000     0.128810000000     0.470780000000    -0.181457   
N17      N      0.528140000000     0.205880000000     0.481280000000    -0.110646   
N18      N      0.530140000000     0.352210000000     0.537290000000    -0.113021   
N19      N      0.527120000000     0.429410000000     0.546690000000    -0.181809   
N20      N      0.473240000000     0.166740000000     0.397540000000    -0.10806    
N21      N      0.536400000000     0.640280000000     0.079510000000    -0.182545   
N22      N      0.535640000000     0.714410000000     0.055830000000    -0.110092   
N23      N      0.530430000000     0.838480000000     0.961700000000    -0.112846   
N24      N      0.528630000000     0.912280000000     0.937660000000    -0.181687   
N25      N      0.584280000000     0.691630000000     0.147870000000    -0.105683   
N26      N      0.530740000000     0.431760000000     0.024560000000    -0.182122   
N27      N      0.529030000000     0.356180000000     0.005160000000    -0.110391   
N28      N      0.526350000000     0.198380000000     0.003730000000    -0.112517   
N29      N      0.526850000000     0.122710000000     0.985030000000    -0.18033    
N30      N      0.583180000000     0.426980000000     0.943200000000    -0.10841    
N31      N      0.527520000000     0.042970000000     0.855650000000    -0.182276   
N32      N      0.528960000000     0.044040000000     0.780090000000    -0.110538   
N33      N      0.525790000000     0.000600000000     0.633570000000    -0.113041   
N34      N      0.523610000000     0.001230000000     0.558160000000    -0.182273   
N35      N      0.579740000000     0.124250000000     0.833130000000    -0.10785    
N36      N      0.520080000000     0.991710000000     0.058420000000    -0.182883   
N37      N      0.517280000000     0.992400000000     0.133810000000    -0.110165   
N38      N      0.517060000000     0.042410000000     0.278210000000    -0.112737   
N39      N      0.518860000000     0.044240000000     0.353480000000    -0.18193    
N40      N      0.564670000000     0.907260000000     0.084990000000    -0.109265   
N41      N      0.902160000000     0.643000000000     0.563390000000    -0.104724   
N42      N      0.833820000000     0.608790000000     0.559230000000    -0.111974   
N43      N      0.679310000000     0.580400000000     0.561790000000    -0.116587   
N44      N      0.611010000000     0.541600000000     0.554410000000    -0.226709   
N45      N      0.920680000000     0.548200000000     0.585450000000    -0.10349    
N46      N      0.428790000000     0.530250000000     0.557680000000    -0.231037   
N47      N      0.353730000000     0.529610000000     0.580290000000    -0.113452   
N48      N      0.197420000000     0.514740000000     0.571760000000    -0.11472    
N49      N      0.123020000000     0.514610000000     0.589150000000    -0.10494    
N50      N      0.423500000000     0.593090000000     0.633190000000    -0.108884   
N51      N      0.928980000000     0.508520000000     0.075810000000    -0.103946   
N52      N      0.853970000000     0.514660000000     0.064560000000    -0.112039   
N53      N      0.698960000000     0.534520000000     0.078220000000    -0.11573    
N54      N      0.624040000000     0.530310000000     0.056510000000    -0.228949   
N55      N      0.908410000000     0.439880000000     0.009300000000    -0.104947   
N56      N      0.138800000000     0.572680000000     0.054820000000    -0.0963951  
N57      N      0.213480000000     0.559320000000     0.047900000000    -0.112267   
N58      N      0.368630000000     0.553830000000     0.068690000000    -0.116323   
N59      N      0.443160000000     0.537530000000     0.052130000000    -0.230905   
N60      N      0.151540000000     0.571870000000     0.959740000000    -0.105307   
N61      N      0.013300000000     0.502970000000     0.585600000000    -0.179446   
N62      N      0.019080000000     0.496070000000     0.660180000000    -0.109421   
N63      N      0.056460000000     0.486670000000     0.807870000000    -0.113043   
N64      N      0.053110000000     0.492240000000     0.883130000000    -0.180693   
N65      N      0.930260000000     0.455400000000     0.610850000000    -0.103268   
N66      N      0.013680000000     0.520150000000     0.086840000000    -0.180204   
N67      N      0.005210000000     0.528500000000     0.161030000000    -0.110195   
N68      N      0.963710000000     0.534550000000     0.307770000000    -0.113227   
N69      N      0.966920000000     0.528830000000     0.383050000000    -0.18152    
N70      N      0.087420000000     0.580410000000     0.116460000000    -0.106743   
N71      N      0.972850000000     0.910030000000     0.551750000000    -0.0984588  
N72      N      0.988230000000     0.837160000000     0.533750000000    -0.112044   
N73      N      0.978480000000     0.681510000000     0.510760000000    -0.115432   
N74      N      0.002860000000     0.608380000000     0.493160000000    -0.224429   
N75      N      0.069430000000     0.900500000000     0.569960000000    -0.106244   
N76      N      0.956030000000     0.123330000000     0.435300000000    -0.0997507  
N77      N      0.958600000000     0.199850000000     0.439030000000    -0.111906   
N78      N      0.987740000000     0.349360000000     0.478500000000    -0.115775   
N79      N      0.981850000000     0.427670000000     0.473100000000    -0.229323   
N80      N      0.872070000000     0.152680000000     0.393870000000    -0.111137   
N81      N      0.612400000000     0.018870000000     0.451940000000    -0.23159    
N82      N      0.688470000000     0.037200000000     0.459210000000    -0.113332   
N83      N      0.844170000000     0.023730000000     0.443970000000    -0.115024   
N84      N      0.919020000000     0.039130000000     0.445900000000    -0.0946577  
N85      N      0.619010000000     0.076660000000     0.531090000000    -0.109469   
N86      N      0.429690000000     0.025300000000     0.457940000000    -0.229097   
N87      N      0.355650000000     0.998870000000     0.461170000000    -0.113616   
N88      N      0.198730000000     0.996360000000     0.466490000000    -0.114565   
N89      N      0.126340000000     0.971660000000     0.468770000000    -0.097824   
N90      N      0.432260000000     0.938880000000     0.507830000000    -0.111126   
N91      N      0.099570000000     0.897550000000     0.951520000000    -0.100265   
N92      N      0.096070000000     0.820880000000     0.953840000000    -0.111912   
N93      N      0.047120000000     0.672790000000     0.975880000000    -0.116107   
N94      N      0.050990000000     0.594210000000     0.975180000000    -0.226361   
N95      N      0.193740000000     0.871100000000     0.964220000000    -0.108554   
N96      N      0.966270000000     0.119320000000     0.058040000000    -0.0963357  
N97      N      0.971760000000     0.191750000000     0.034250000000    -0.11236    
N98      N      0.014750000000     0.341990000000     0.014790000000    -0.116132   
N99      N      0.009320000000     0.417040000000     0.991980000000    -0.224536   
N100     N      0.872800000000     0.145020000000     0.038750000000    -0.111441   
N101     N      0.916700000000     0.059360000000     0.010910000000    -0.0971804  
N102     N      0.844780000000     0.040800000000     0.993370000000    -0.11163    
N103     N      0.688740000000     0.043050000000     0.977320000000    -0.11621    
N104     N      0.616730000000     0.017070000000     0.959790000000    -0.227333   
N105     N      0.914630000000     0.960860000000     0.021690000000    -0.108366   
N106     N      0.434470000000     0.017900000000     0.953480000000    -0.228747   
N107     N      0.360790000000     0.018060000000     0.979580000000    -0.113801   
N108     N      0.204180000000     0.012090000000     0.988080000000    -0.111473   
N109     N      0.133780000000     0.011870000000     0.017280000000    -0.117513   
N110     N      0.435130000000     0.067720000000     0.038040000000    -0.109783   
N111     N      0.165490000000     0.994500000000     0.914060000000    -0.101436   
N112     N      0.143050000000     0.981680000000     0.844170000000    -0.11161    
N113     N      0.054520000000     0.956310000000     0.720620000000    -0.114812   
N114     N      0.032550000000     0.946510000000     0.650140000000    -0.0995639  
N115     N      0.242210000000     0.946140000000     0.876040000000    -0.108374   
N116     N      0.982130000000     0.059600000000     0.120330000000    -0.100421   
N117     N      0.983020000000     0.059420000000     0.194600000000    -0.112019   
N118     N      0.017590000000     0.026590000000     0.339980000000    -0.114772   
N119     N      0.018220000000     0.028900000000     0.414260000000    -0.0987609  
N120     N      0.890260000000     0.087180000000     0.143050000000    -0.108719   
O1       O      0.000150000000     0.947010000000     0.999320000000    -0.365721   
O2       O      0.997220000000     0.049680000000     0.955800000000    -0.375268   
O3       O      0.006900000000     0.976300000000     0.928410000000    -0.372575   
O4       O      0.990620000000     0.020390000000     0.026830000000    -0.364714   
O5       O      0.051670000000     0.025720000000     0.034190000000    -0.370933   
O6       O      0.068010000000     0.981400000000     0.935890000000    -0.371907   
O7       O      0.058330000000     0.054810000000     0.963110000000    -0.376915   
O8       O      0.061180000000     0.952290000000     0.006920000000    -0.37134    
O9       O      0.057030000000     0.985170000000     0.539950000000    -0.367768   
O10      O      0.986860000000     0.058430000000     0.494280000000    -0.365506   
O11      O      0.064220000000     0.043970000000     0.488900000000    -0.369516   
O12      O      0.979670000000     0.999530000000     0.545190000000    -0.371986   
O13      O      0.990330000000     0.039540000000     0.589850000000    -0.376036   
O14      O      0.074750000000     0.084180000000     0.533430000000    -0.373055   
O15      O      0.997300000000     0.098420000000     0.539000000000    -0.375865   
O16      O      0.067840000000     0.025350000000     0.584440000000    -0.377374   
O17      O      0.017730000000     0.483710000000     0.037030000000    -0.48105    
O18      O      0.033970000000     0.469500000000     0.937110000000    -0.47863    
O19      O      0.074390000000     0.464830000000     0.996110000000    -0.457164   
O20      O      0.973300000000     0.485780000000     0.977050000000    -0.448284   
O21      O      0.985800000000     0.545470000000     0.970280000000    -0.460115   
O22      O      0.085960000000     0.525110000000     0.994040000000    -0.445619   
O23      O      0.047290000000     0.528710000000     0.932600000000    -0.481375   
O24      O      0.024640000000     0.543850000000     0.031160000000    -0.481421   
O25      O      0.000010000000     0.478940000000     0.530560000000    -0.481969   
O26      O      0.977570000000     0.492740000000     0.431990000000    -0.485051   
O27      O      0.040900000000     0.484570000000     0.470720000000    -0.458228   
O28      O      0.938610000000     0.492750000000     0.493220000000    -0.452234   
O29      O      0.944830000000     0.553570000000     0.498650000000    -0.456651   
O30      O      0.046860000000     0.545500000000     0.475040000000    -0.454072   
O31      O      0.983810000000     0.553040000000     0.437190000000    -0.479865   
O32      O      0.007070000000     0.539220000000     0.535860000000    -0.47807    
O33      O      0.491690000000     0.006300000000     0.005850000000    -0.483799   
O34      O      0.495410000000     0.030380000000     0.906770000000    -0.485236   
O35      O      0.497620000000     0.966730000000     0.945730000000    -0.481521   
O36      O      0.497010000000     0.069680000000     0.968460000000    -0.478904   
O37      O      0.557570000000     0.069270000000     0.971820000000    -0.48762    
O38      O      0.558230000000     0.966940000000     0.947590000000    -0.483619   
O39      O      0.556040000000     0.030210000000     0.908730000000    -0.485707   
O40      O      0.552230000000     0.005320000000     0.007590000000    -0.484217   
O41      O      0.489550000000     0.034160000000     0.406620000000    -0.484545   
O42      O      0.492410000000     0.014130000000     0.506640000000    -0.48702    
O43      O      0.492650000000     0.074950000000     0.464890000000    -0.47995    
O44      O      0.489240000000     0.971590000000     0.445990000000    -0.48463    
O45      O      0.549930000000     0.969790000000     0.444820000000    -0.485369   
O46      O      0.553430000000     0.072970000000     0.463830000000    -0.48561    
O47      O      0.552760000000     0.010610000000     0.504800000000    -0.487128   
O48      O      0.550000000000     0.030860000000     0.404870000000    -0.487884   
O49      O      0.565430000000     0.585310000000     0.068690000000    -0.482394   
O50      O      0.562060000000     0.483470000000     0.042180000000    -0.483132   
O51      O      0.565710000000     0.548770000000     0.007680000000    -0.476731   
O52      O      0.562170000000     0.521520000000     0.106410000000    -0.485118   
O53      O      0.501540000000     0.521260000000     0.104450000000    -0.489688   
O54      O      0.505150000000     0.551000000000     0.007010000000    -0.486491   
O55      O      0.501510000000     0.485260000000     0.040750000000    -0.483329   
O56      O      0.504850000000     0.586580000000     0.069520000000    -0.485722   
O57      O      0.494290000000     0.482990000000     0.551650000000    -0.487776   
O58      O      0.488230000000     0.587140000000     0.564110000000    -0.48291    
O59      O      0.486210000000     0.541800000000     0.507060000000    -0.483967   
O60      O      0.489260000000     0.528790000000     0.608390000000    -0.481515   
O61      O      0.549950000000     0.529220000000     0.606680000000    -0.484751   
O62      O      0.546710000000     0.545350000000     0.506380000000    -0.489803   
O63      O      0.548790000000     0.589780000000     0.565660000000    -0.492118   
O64      O      0.554900000000     0.485960000000     0.550150000000    -0.483863   


