data_structure

_audit_creation_method RASPA-1.0
_audit_creation_date 2023-6-4
_audit_author_name 'Poobodin Mano'

_cell_length_a    25.8582
_cell_length_b    26.7136
_cell_length_c    37.2091
_cell_angle_alpha 89.9988
_cell_angle_beta  89.9988
_cell_angle_gamma 93.672
_cell_volume      25650

_symmetry_cell_setting          triclinic
_symmetry_space_group_name_Hall 'P 1'
_symmetry_space_group_name_H-M  'P 1'
_symmetry_Int_Tables_number     1

_symmetry_equiv_pos_as_xyz 'x,y,z'

loop_
_atom_site_label
_atom_site_type_symbol
_atom_site_fract_x
_atom_site_fract_y
_atom_site_fract_z
_atom_site_charge
C1       C      0.076060000000     0.924260000000     0.007040000000     0.400268   
C2       C      0.939860000000     0.066870000000     0.999870000000     0.400819   
C3       C      0.082660000000     0.064470000000     0.019250000000     0.416683   
C4       C      0.933510000000     0.925950000000     0.985690000000     0.401065   
C5       C      0.072390000000     0.909430000000     0.513560000000     0.398974   
C6       C      0.950110000000     0.061190000000     0.535250000000     0.402256   
C7       C      0.085720000000     0.048940000000     0.502970000000     0.413733   
C8       C      0.933450000000     0.920800000000     0.546730000000     0.404926   
C9       C      0.480480000000     0.498150000000     0.956160000000     0.475656   
C10      C      0.536140000000     0.491040000000     0.087230000000     0.472901   
C11      C      0.570200000000     0.428080000000     0.005190000000     0.468277   
C12      C      0.446930000000     0.564400000000     0.033550000000     0.471257   
C13      C      0.546050000000     0.480140000000     0.457100000000     0.483915   
C14      C      0.483200000000     0.491470000000     0.586110000000     0.477903   
C15      C      0.576630000000     0.421390000000     0.539350000000     0.470303   
C16      C      0.444810000000     0.548370000000     0.506390000000     0.475318   
C17      C      0.413540000000     0.464960000000     0.674410000000    -0.0309139  
C18      C      0.490970000000     0.526840000000     0.859300000000    -0.0316961  
C19      C      0.422720000000     0.466610000000     0.907050000000    -0.00188323 
C20      C      0.484400000000     0.543310000000     0.898230000000    -0.00226522 
C21      C      0.407780000000     0.513590000000     0.786940000000    -0.0519931  
C22      C      0.485070000000     0.460560000000     0.754490000000    -0.0521342  
C23      C      0.444020000000     0.490900000000     0.808450000000     0.0626188  
C24      C      0.431890000000     0.453320000000     0.867570000000    -0.0319818  
C25      C      0.450090000000     0.484980000000     0.732930000000     0.0622184  
C26      C      0.470990000000     0.538140000000     0.682210000000    -0.0239995  
C27      C      0.410500000000     0.510610000000     0.749530000000    -0.0543677  
C28      C      0.489660000000     0.538850000000     0.642950000000    -0.00912993 
C29      C      0.428080000000     0.458110000000     0.634920000000     0.00037412 
C30      C      0.482040000000     0.463170000000     0.791970000000    -0.0551835  
C31      C      0.562190000000     0.431470000000     0.363170000000    -0.0322606  
C32      C      0.578880000000     0.530310000000     0.179300000000    -0.028905   
C33      C      0.534670000000     0.440900000000     0.142890000000    -0.00287906 
C34      C      0.588010000000     0.524100000000     0.138900000000    -0.00721789 
C35      C      0.611250000000     0.462490000000     0.254930000000    -0.050986   
C36      C      0.532460000000     0.508070000000     0.291710000000    -0.0520081  
C37      C      0.572360000000     0.484510000000     0.235440000000     0.0626226  
C38      C      0.527210000000     0.451610000000     0.182790000000    -0.0309288  
C39      C      0.570810000000     0.485160000000     0.311200000000     0.0637969  
C40      C      0.610000000000     0.512390000000     0.367740000000    -0.0218762  
C41      C      0.610680000000     0.462750000000     0.292460000000    -0.0553158  
C42      C      0.608790000000     0.506790000000     0.409450000000    -0.0104782  
C43      C      0.541710000000     0.431630000000     0.401460000000     0.00552978 
C44      C      0.533090000000     0.507870000000     0.254130000000    -0.054504   
C45      C      0.186460000000     0.830640000000     0.526900000000    -0.029132   
C46      C      0.314990000000     0.598200000000     0.489450000000    -0.0311702  
C47      C      0.419750000000     0.635940000000     0.508620000000    -0.00349688 
C48      C      0.361120000000     0.567760000000     0.478920000000    -0.00214867 
C49      C      0.292270000000     0.730250000000     0.474430000000    -0.0509209  
C50      C      0.206830000000     0.709050000000     0.519070000000    -0.0512138  
C51      C      0.288840000000     0.685100000000     0.493760000000     0.0627057  
C52      C      0.370710000000     0.662100000000     0.518590000000    -0.0296664  
C53      C      0.209850000000     0.753830000000     0.499220000000     0.0622837  
C54      C      0.150640000000     0.808130000000     0.469260000000    -0.0242342  
C55      C      0.253900000000     0.764650000000     0.477490000000    -0.0535459  
C56      C      0.103640000000     0.840840000000     0.474200000000    -0.0134053  
C57      C      0.139760000000     0.859190000000     0.537880000000    -0.00702309 
C58      C      0.246170000000     0.675340000000     0.516910000000    -0.054042   
C59      C      0.672280000000     0.602920000000     0.577900000000    -0.0161682  
C60      C      0.826930000000     0.827400000000     0.535560000000    -0.029949   
C61      C      0.892640000000     0.866470000000     0.594040000000    -0.00620836 
C62      C      0.845500000000     0.882530000000     0.536130000000    -0.00589521 
C63      C      0.746190000000     0.754360000000     0.587670000000    -0.0510435  
C64      C      0.785050000000     0.674430000000     0.549800000000    -0.0520892  
C65      C      0.796200000000     0.759230000000     0.573420000000     0.0638518  
C66      C      0.872070000000     0.811510000000     0.591690000000    -0.0300482  
C67      C      0.733580000000     0.671000000000     0.561680000000     0.0648331  
C68      C      0.662680000000     0.649630000000     0.522110000000    -0.0178466  
C69      C      0.715010000000     0.710690000000     0.581990000000    -0.0552789  
C70      C      0.623430000000     0.608290000000     0.507780000000    -0.0221823  
C71      C      0.638370000000     0.560040000000     0.562120000000    -0.0288504  
C72      C      0.816430000000     0.718160000000     0.555730000000    -0.054213   
C73      C      0.865520000000     0.168050000000     0.514900000000    -0.0284367  
C74      C      0.632000000000     0.297190000000     0.550060000000    -0.0315462  
C75      C      0.667640000000     0.402930000000     0.551160000000    -0.00308619 
C76      C      0.594620000000     0.336690000000     0.561470000000    -0.00304048 
C77      C      0.770070000000     0.283050000000     0.575140000000    -0.0504239  
C78      C      0.754180000000     0.198010000000     0.532090000000    -0.0510733  
C79      C      0.724000000000     0.276700000000     0.555250000000     0.0618737  
C80      C      0.701130000000     0.360810000000     0.538790000000    -0.0312271  
C81      C      0.800500000000     0.204420000000     0.551860000000     0.0621249  
C82      C      0.876720000000     0.166660000000     0.578550000000    -0.0241068  
C83      C      0.808240000000     0.248300000000     0.573010000000    -0.0531505  
C84      C      0.910600000000     0.120780000000     0.577350000000    -0.0120994  
C85      C      0.891100000000     0.118800000000     0.508920000000    -0.00677073 
C86      C      0.717030000000     0.234010000000     0.532950000000    -0.0527344  
C87      C      0.194830000000     0.140480000000     0.515640000000    -0.0287982  
C88      C      0.361100000000     0.356360000000     0.464230000000    -0.0219869  
C89      C      0.400300000000     0.373170000000     0.536050000000    -0.0192167  
C90      C      0.392650000000     0.404160000000     0.475090000000    -0.019643   
C91      C      0.247730000000     0.291520000000     0.495570000000    -0.0517942  
C92      C      0.288170000000     0.204320000000     0.468700000000    -0.0527074  
C93      C      0.300400000000     0.291500000000     0.487150000000     0.0636455  
C94      C      0.368320000000     0.325210000000     0.526030000000    -0.0220956  
C95      C      0.235870000000     0.203780000000     0.478340000000     0.064772   
C96      C      0.158270000000     0.157420000000     0.457140000000    -0.0249316  
C97      C      0.215580000000     0.248040000000     0.491380000000    -0.0548905  
C98      C      0.129050000000     0.105210000000     0.455650000000    -0.0099361  
C99      C      0.171830000000     0.087000000000     0.515320000000    -0.00584724 
C100     C      0.320400000000     0.247730000000     0.473140000000    -0.0550356  
C101     C      0.149140000000     0.821860000000     0.048130000000    -0.0287258  
C102     C      0.380160000000     0.680740000000     0.018020000000    -0.0317248  
C103     C      0.363570000000     0.588270000000     0.059250000000    -0.00304962 
C104     C      0.426920000000     0.653780000000     0.031790000000    -0.00255266 
C105     C      0.292710000000     0.748920000000     0.055710000000    -0.0515554  
C106     C      0.218280000000     0.727130000000     0.002590000000    -0.0517488  
C107     C      0.294960000000     0.704700000000     0.035650000000     0.0623236  
C108     C      0.319520000000     0.618420000000     0.044860000000    -0.031379   
C109     C      0.215280000000     0.770770000000     0.023270000000     0.0623701  
C110     C      0.193730000000     0.846990000000     0.993690000000    -0.0231801  
C111     C      0.253940000000     0.782050000000     0.049320000000    -0.0537767  
C112     C      0.148940000000     0.878120000000     0.980590000000    -0.0146086  
C113     C      0.101030000000     0.848920000000     0.037930000000    -0.00863084 
C114     C      0.258040000000     0.694720000000     0.008250000000    -0.0543834  
C115     C      0.666520000000     0.608560000000     0.956830000000    -0.0177953  
C116     C      0.821280000000     0.831530000000     0.994660000000    -0.0298844  
C117     C      0.893550000000     0.870060000000     0.939580000000    -0.00728372 
C118     C      0.870990000000     0.860010000000     0.006730000000    -0.00586326 
C119     C      0.798790000000     0.717190000000     0.965520000000    -0.0523495  
C120     C      0.699840000000     0.741520000000     0.944300000000    -0.0521021  
C121     C      0.790800000000     0.766100000000     0.954530000000     0.0637279  
C122     C      0.842890000000     0.839070000000     0.931740000000    -0.0294083  
C123     C      0.707140000000     0.693340000000     0.957580000000     0.0627672  
C124     C      0.650020000000     0.666720000000     0.005230000000    -0.0198462  
C125     C      0.757470000000     0.681280000000     0.967600000000    -0.0544966  
C126     C      0.601250000000     0.634040000000     0.016620000000    -0.0229341  
C127     C      0.616240000000     0.578890000000     0.966090000000    -0.030901   
C128     C      0.741110000000     0.777930000000     0.943130000000    -0.0550234  
C129     C      0.810890000000     0.122090000000     0.002170000000    -0.0295733  
C130     C      0.694620000000     0.368120000000     0.993870000000    -0.0313634  
C131     C      0.584150000000     0.338560000000     0.994030000000    -0.0029045  
C132     C      0.655600000000     0.405760000000     0.982010000000    -0.00356887 
C133     C      0.727310000000     0.250530000000     0.962610000000    -0.0513047  
C134     C      0.773220000000     0.238180000000     0.029770000000    -0.0522591  
C135     C      0.712690000000     0.280050000000     0.991630000000     0.0618722  
C136     C      0.626040000000     0.303880000000     0.005730000000    -0.0318294  
C137     C      0.788390000000     0.209230000000     0.000650000000     0.0631174  
C138     C      0.874900000000     0.187170000000     0.983600000000    -0.0228496  
C139     C      0.764680000000     0.215280000000     0.966990000000    -0.0546895  
C140     C      0.919700000000     0.156500000000     0.996430000000    -0.0159773  
C141     C      0.853160000000     0.088800000000     0.015540000000    -0.00737236 
C142     C      0.735620000000     0.273130000000     0.025470000000    -0.0544939  
C143     C      0.146030000000     0.169490000000     0.071040000000    -0.0289392  
C144     C      0.353810000000     0.344280000000     0.017990000000    -0.0233463  
C145     C      0.384030000000     0.422040000000     0.068560000000    -0.018488   
C146     C      0.388370000000     0.390400000000     0.007700000000    -0.017578   
C147     C      0.233970000000     0.313350000000     0.049030000000    -0.0522383  
C148     C      0.274380000000     0.223430000000     0.070590000000    -0.0527077  
C149     C      0.286560000000     0.312540000000     0.057650000000     0.0629492  
C150     C      0.349950000000     0.375900000000     0.079960000000    -0.022636   
C151     C      0.222840000000     0.223460000000     0.059260000000     0.0639056  
C152     C      0.188130000000     0.168870000000     0.013100000000    -0.0252397  
C153     C      0.202110000000     0.269220000000     0.049900000000    -0.055828   
C154     C      0.166110000000     0.115520000000     0.004420000000    -0.010905   
C155     C      0.124440000000     0.115510000000     0.066510000000    -0.00525345 
C156     C      0.306130000000     0.267570000000     0.069940000000    -0.0547858  
Cu1      Cu     0.018070000000     0.001520000000     0.970760000000     0.881479   
Cu2      Cu     0.997150000000     0.989160000000     0.034880000000     0.84244    
Cu3      Cu     0.994180000000     0.980430000000     0.493650000000     0.876208   
Cu4      Cu     0.025810000000     0.988070000000     0.555890000000     0.859175   
Cu5      Cu     0.549240000000     0.534080000000     0.015100000000     1.17351    
Cu6      Cu     0.469740000000     0.458340000000     0.028060000000     1.213      
Cu7      Cu     0.550540000000     0.525780000000     0.527120000000     1.20522    
Cu8      Cu     0.475380000000     0.446600000000     0.515180000000     1.19288    
H1       H      0.510340000000     0.445060000000     0.808010000000     0.0425463  
H2       H      0.400590000000     0.427610000000     0.685680000000     0.0372191  
H3       H      0.502420000000     0.556270000000     0.699140000000     0.0457546  
H4       H      0.385740000000     0.485500000000     0.909080000000     0.0374611  
H5       H      0.444240000000     0.420710000000     0.631790000000     0.0378619  
H6       H      0.499530000000     0.560950000000     0.842590000000     0.0376437  
H7       H      0.396310000000     0.432680000000     0.857050000000     0.0373457  
H8       H      0.522040000000     0.560710000000     0.907800000000     0.0381452  
H9       H      0.515730000000     0.440740000000     0.742170000000     0.0474041  
H10      H      0.392270000000     0.456960000000     0.618290000000     0.0411692  
H11      H      0.378270000000     0.534930000000     0.799260000000     0.0478194  
H12      H      0.380120000000     0.489200000000     0.676070000000     0.040104   
H13      H      0.418260000000     0.431230000000     0.922810000000     0.0384307  
H14      H      0.532420000000     0.536000000000     0.643260000000     0.0521366  
H15      H      0.524690000000     0.503020000000     0.857530000000     0.0388181  
H16      H      0.464470000000     0.428100000000     0.865780000000     0.0391831  
H17      H      0.382870000000     0.529810000000     0.733620000000     0.0448518  
H18      H      0.436510000000     0.560800000000     0.685200000000     0.0520774  
H19      H      0.455810000000     0.572650000000     0.899020000000     0.0372995  
H20      H      0.464050000000     0.673160000000     0.641830000000     0.159442   
H21      H      0.502550000000     0.525140000000     0.239710000000     0.0435636  
H22      H      0.534330000000     0.408020000000     0.346430000000     0.0377273  
H23      H      0.607070000000     0.552710000000     0.361020000000     0.0476379  
H24      H      0.565660000000     0.414170000000     0.140020000000     0.0384581  
H25      H      0.498830000000     0.433540000000     0.400580000000     0.0408333  
H26      H      0.612780000000     0.552570000000     0.190840000000     0.0412325  
H27      H      0.521970000000     0.415110000000     0.197210000000     0.0364268  
H28      H      0.585310000000     0.561390000000     0.126430000000     0.0646285  
H29      H      0.501510000000     0.525350000000     0.305730000000     0.0496295  
H30      H      0.549490000000     0.395590000000     0.414770000000     0.0424762  
H31      H      0.641650000000     0.444350000000     0.240920000000     0.0485506  
H32      H      0.600140000000     0.414020000000     0.362400000000     0.0516057  
H33      H      0.498240000000     0.421870000000     0.132420000000     0.0412498  
H34      H      0.606960000000     0.545100000000     0.420890000000     0.0656953  
H35      H      0.543840000000     0.551810000000     0.183460000000     0.0419967  
H36      H      0.491330000000     0.472020000000     0.186440000000     0.0391872  
H37      H      0.640720000000     0.444650000000     0.306830000000     0.048191   
H38      H      0.647850000000     0.501910000000     0.356730000000     0.0509721  
H39      H      0.627770000000     0.511780000000     0.134450000000     0.0493697  
H40      H      0.749700000000     0.505680000000     0.419570000000     0.159062   
H41      H      0.243000000000     0.641890000000     0.533320000000     0.0445451  
H42      H      0.204520000000     0.816560000000     0.551810000000     0.0377696  
H43      H      0.138860000000     0.776170000000     0.451200000000     0.0503841  
H44      H      0.437960000000     0.655010000000     0.484800000000     0.0563946  
H45      H      0.115540000000     0.835510000000     0.556820000000     0.0429257  
H46      H      0.283730000000     0.591250000000     0.469170000000     0.0382262  
H47      H      0.381120000000     0.703100000000     0.520610000000     0.042137   
H48      H      0.349510000000     0.527210000000     0.481970000000     0.0407146  
H49      H      0.174160000000     0.700630000000     0.536750000000     0.0479736  
H50      H      0.154440000000     0.893100000000     0.553040000000     0.0452502  
H51      H      0.325500000000     0.739220000000     0.457350000000     0.0494035  
H52      H      0.215750000000     0.856530000000     0.513250000000     0.0426344  
H53      H      0.447250000000     0.640510000000     0.531510000000     0.0712001  
H54      H      0.068290000000     0.815100000000     0.476690000000     0.0530714  
H55      H      0.300090000000     0.584520000000     0.515980000000     0.0417682  
H56      H      0.356280000000     0.648810000000     0.545370000000     0.0512443  
H57      H      0.259110000000     0.799660000000     0.462990000000     0.0466189  
H58      H      0.182360000000     0.831030000000     0.455650000000     0.0522645  
H59      H      0.369760000000     0.574480000000     0.449990000000     0.0407217  
H60      H      0.121640000000     0.871050000000     0.377930000000     0.163485   
H61      H      0.855090000000     0.721170000000     0.544450000000     0.0449085  
H62      H      0.701120000000     0.587200000000     0.596250000000     0.0352077  
H63      H      0.685160000000     0.666100000000     0.498970000000     0.0527567  
H64      H      0.866740000000     0.886860000000     0.611970000000     0.0428068  
H65      H      0.662970000000     0.534330000000     0.547270000000     0.0506611  
H66      H      0.788640000000     0.823840000000     0.521760000000     0.0406364  
H67      H      0.866940000000     0.796440000000     0.619430000000     0.0380697  
H68      H      0.850960000000     0.895910000000     0.508020000000     0.0471467  
H69      H      0.799810000000     0.644350000000     0.534080000000     0.0505562  
H70      H      0.618830000000     0.538880000000     0.584480000000     0.0437617  
H71      H      0.730210000000     0.785790000000     0.601190000000     0.0492069  
H72      H      0.647440000000     0.627280000000     0.593770000000     0.0483078  
H73      H      0.931900000000     0.868090000000     0.606350000000     0.0450149  
H74      H      0.643450000000     0.582830000000     0.489570000000     0.0582162  
H75      H      0.854850000000     0.806130000000     0.519780000000     0.0443541  
H76      H      0.900960000000     0.789430000000     0.577520000000     0.0408565  
H77      H      0.675330000000     0.709500000000     0.591300000000     0.0492087  
H78      H      0.640910000000     0.679950000000     0.534470000000     0.0548298  
H79      H      0.814700000000     0.904150000000     0.548450000000     0.0405347  
H80      H      0.579550000000     0.703870000000     0.446510000000     0.15911    
H81      H      0.682760000000     0.227530000000     0.516560000000     0.0435151  
H82      H      0.838230000000     0.172840000000     0.492200000000     0.0380394  
H83      H      0.856770000000     0.166750000000     0.605060000000     0.0477121  
H84      H      0.677120000000     0.412120000000     0.579650000000     0.0384806  
H85      H      0.860440000000     0.089190000000     0.502070000000     0.0455175  
H86      H      0.621140000000     0.261700000000     0.564650000000     0.0371375  
H87      H      0.742360000000     0.372980000000     0.544180000000     0.0392509  
H88      H      0.555070000000     0.324780000000     0.551740000000     0.0423316  
H89      H      0.747050000000     0.164980000000     0.515490000000     0.0467558  
H90      H      0.916900000000     0.123170000000     0.485050000000     0.0579863  
H91      H      0.776640000000     0.315590000000     0.592300000000     0.0469323  
H92      H      0.895160000000     0.200210000000     0.513910000000     0.047244   
H93      H      0.677930000000     0.436930000000     0.534810000000     0.0533344  
H94      H      0.889760000000     0.089810000000     0.592540000000     0.0538381  
H95      H      0.627140000000     0.290350000000     0.520690000000     0.0415735  
H96      H      0.696710000000     0.354930000000     0.509280000000     0.0503462  
H97      H      0.843080000000     0.256080000000     0.588570000000     0.0477287  
H98      H      0.902360000000     0.201710000000     0.576550000000     0.0534423  
H99      H      0.593050000000     0.337500000000     0.591330000000     0.0373693  
H100     H      0.998180000000     0.193130000000     0.639610000000     0.161964   
H101     H      0.361170000000     0.246570000000     0.466870000000     0.0431212  
H102     H      0.231220000000     0.141680000000     0.531740000000     0.0385302  
H103     H      0.168530000000     0.169510000000     0.429260000000     0.0532484  
H104     H      0.374710000000     0.401520000000     0.546890000000     0.0392911  
H105     H      0.201220000000     0.062410000000     0.504400000000     0.0432953  
H106     H      0.332840000000     0.365820000000     0.443120000000     0.0352098  
H107     H      0.345310000000     0.312190000000     0.549920000000     0.0349813  
H108     H      0.415230000000     0.418870000000     0.451570000000     0.0358697  
H109     H      0.304380000000     0.170380000000     0.459130000000     0.0486535  
H110     H      0.164330000000     0.075300000000     0.543600000000     0.0493807  
H111     H      0.232060000000     0.324820000000     0.506690000000     0.0482792  
H112     H      0.167250000000     0.165020000000     0.528910000000     0.0491571  
H113     H      0.428700000000     0.364340000000     0.557140000000     0.0353007  
H114     H      0.151590000000     0.080690000000     0.438260000000     0.058502   
H115     H      0.387760000000     0.329410000000     0.452770000000     0.0381489  
H116     H      0.395070000000     0.295740000000     0.518760000000     0.038362   
H117     H      0.175550000000     0.248490000000     0.499740000000     0.0480693  
H118     H      0.132060000000     0.184810000000     0.468640000000     0.0534525  
H119     H      0.366030000000     0.432960000000     0.483720000000     0.0410401  
H120     H      0.038180000000     0.163070000000     0.394230000000     0.161105   
H121     H      0.259640000000     0.661970000000     0.991320000000     0.0431055  
H122     H      0.137030000000     0.789500000000     0.065720000000     0.037519   
H123     H      0.214130000000     0.833170000000     0.969630000000     0.051208   
H124     H      0.369660000000     0.597790000000     0.088100000000     0.039968   
H125     H      0.071070000000     0.820680000000     0.027770000000     0.040278   
H126     H      0.391620000000     0.721550000000     0.016190000000     0.0391134  
H127     H      0.285670000000     0.612760000000     0.063210000000     0.0371617  
H128     H      0.458400000000     0.658110000000     0.011450000000     0.0442935  
H129     H      0.189930000000     0.718520000000     0.981700000000     0.0481703  
H130     H      0.085260000000     0.865050000000     0.062880000000     0.0455646  
H131     H      0.321560000000     0.757950000000     0.076200000000     0.048467   
H132     H      0.175450000000     0.848240000000     0.063830000000     0.0415996  
H133     H      0.351280000000     0.547700000000     0.057760000000     0.0390461  
H134     H      0.127870000000     0.856660000000     0.958910000000     0.0546854  
H135     H      0.369470000000     0.667030000000     0.990570000000     0.0407878  
H136     H      0.308040000000     0.603470000000     0.017900000000     0.0385744  
H137     H      0.254370000000     0.816310000000     0.064810000000     0.0449013  
H138     H      0.222300000000     0.871210000000     0.009420000000     0.0525392  
H139     H      0.441270000000     0.672460000000     0.056910000000     0.0492725  
H140     H      0.251680000000     0.959870000000     0.937900000000     0.167705   
H141     H      0.733540000000     0.815800000000     0.935390000000     0.0435314  
H142     H      0.673600000000     0.605590000000     0.927440000000     0.0331951  
H143     H      0.643180000000     0.706690000000     0.010910000000     0.0500225  
H144     H      0.926560000000     0.846260000000     0.934560000000     0.0436567  
H145     H      0.584190000000     0.594350000000     0.950560000000     0.0435254  
H146     H      0.808480000000     0.805140000000     0.016580000000     0.0384575  
H147     H      0.847460000000     0.817980000000     0.906260000000     0.0381199  
H148     H      0.861520000000     0.885210000000     0.029280000000     0.0423476  
H149     H      0.661290000000     0.751850000000     0.937300000000     0.0473655  
H150     H      0.619650000000     0.539240000000     0.958050000000     0.0383941  
H151     H      0.836560000000     0.707960000000     0.975130000000     0.047948   
H152     H      0.698400000000     0.591470000000     0.971530000000     0.0385442  
H153     H      0.897380000000     0.901780000000     0.920190000000     0.0461837  
H154     H      0.566100000000     0.649300000000     0.004720000000     0.0458508  
H155     H      0.790300000000     0.858110000000     0.990530000000     0.0400027  
H156     H      0.811180000000     0.864870000000     0.927940000000     0.0384865  
H157     H      0.764730000000     0.645360000000     0.979230000000     0.0443862  
H158     H      0.683820000000     0.656350000000     0.021670000000     0.0519372  
H159     H      0.897940000000     0.832770000000     0.017410000000     0.0417326  
H160     H      0.615320000000     0.696980000000     0.103740000000     0.157531   
H161     H      0.724760000000     0.294950000000     0.048450000000     0.0430974  
H162     H      0.775410000000     0.113870000000     0.018620000000     0.0372121  
H163     H      0.886660000000     0.227840000000     0.986170000000     0.0523285  
H164     H      0.573120000000     0.329550000000     0.965770000000     0.0379462  
H165     H      0.857210000000     0.093620000000     0.045140000000     0.0451163  
H166     H      0.731570000000     0.376690000000     0.979110000000     0.0382472  
H167     H      0.611890000000     0.264470000000     0.999950000000     0.0373132  
H168     H      0.670040000000     0.443890000000     0.990860000000     0.0422925  
H169     H      0.790970000000     0.233870000000     0.055850000000     0.0480626  
H170     H      0.840700000000     0.048780000000     0.010360000000     0.0376302  
H171     H      0.709800000000     0.255080000000     0.936470000000     0.0476673  
H172     H      0.801380000000     0.112840000000     0.973640000000     0.0424474  
H173     H      0.549270000000     0.330420000000     0.011050000000     0.0422565  
H174     H      0.929540000000     0.169280000000     0.024210000000     0.0517859  
H175     H      0.702420000000     0.373140000000     0.023130000000     0.0404964  
H176     H      0.632240000000     0.307580000000     0.035260000000     0.0398591  
H177     H      0.775480000000     0.193210000000     0.944110000000     0.0459028  
H178     H      0.866460000000     0.178890000000     0.954770000000     0.0511804  
H179     H      0.653990000000     0.406020000000     0.952150000000     0.0368727  
H180     H      0.016600000000     0.239500000000     0.950270000000     0.164442   
H181     H      0.346710000000     0.265790000000     0.076580000000     0.0429806  
H182     H      0.151920000000     0.177090000000     0.100220000000     0.0382597  
H183     H      0.226270000000     0.175300000000     0.999360000000     0.0470732  
H184     H      0.359330000000     0.452490000000     0.060010000000     0.0376798  
H185     H      0.150360000000     0.090290000000     0.080650000000     0.0450662  
H186     H      0.329480000000     0.332800000000     0.994340000000     0.0359211  
H187     H      0.322800000000     0.387100000000     0.101250000000     0.034297   
H188     H      0.415490000000     0.379510000000     0.986370000000     0.035461   
H189     H      0.290840000000     0.188470000000     0.077650000000     0.0489284  
H190     H      0.086110000000     0.112160000000     0.080200000000     0.0477393  
H191     H      0.218480000000     0.347620000000     0.039440000000     0.0471218  
H192     H      0.117410000000     0.195330000000     0.060590000000     0.0466766  
H193     H      0.407710000000     0.435660000000     0.091860000000     0.0350855  
H194     H      0.197050000000     0.089690000000     0.010390000000     0.0599648  
H195     H      0.378960000000     0.313210000000     0.024570000000     0.0390012  
H196     H      0.375140000000     0.347610000000     0.091370000000     0.0375986  
H197     H      0.162420000000     0.270250000000     0.040860000000     0.0461048  
H198     H      0.161510000000     0.196450000000     0.002260000000     0.048102   
H199     H      0.364620000000     0.420400000000     0.997080000000     0.0370022  
H200     H      0.193080000000     0.179680000000     0.932040000000     0.151961   
N1       N      0.466230000000     0.496920000000     0.620720000000    -0.17326    
N2       N      0.458370000000     0.486630000000     0.694480000000    -0.1118     
N3       N      0.443180000000     0.499480000000     0.846740000000    -0.112548   
N4       N      0.465120000000     0.500880000000     0.921040000000    -0.182197   
N5       N      0.564440000000     0.474030000000     0.422940000000    -0.1722     
N6       N      0.567030000000     0.483240000000     0.349950000000    -0.109902   
N7       N      0.572860000000     0.480930000000     0.196720000000    -0.112519   
N8       N      0.550280000000     0.487040000000     0.122580000000    -0.177167   
N9       N      0.106910000000     0.873000000000     0.507210000000    -0.157924   
N10      N      0.169340000000     0.788710000000     0.503540000000    -0.112711   
N11      N      0.331100000000     0.652070000000     0.490820000000    -0.111408   
N12      N      0.408320000000     0.582430000000     0.499890000000    -0.172911   
N13      N      0.599310000000     0.579460000000     0.538070000000    -0.211661   
N14      N      0.699110000000     0.630480000000     0.548500000000    -0.115192   
N15      N      0.822170000000     0.808440000000     0.572640000000    -0.11286    
N16      N      0.892820000000     0.889720000000     0.558080000000    -0.167195   
N17      N      0.920480000000     0.101770000000     0.540360000000    -0.155319   
N18      N      0.838110000000     0.165910000000     0.549440000000    -0.111614   
N19      N      0.685970000000     0.314450000000     0.558540000000    -0.111508   
N20      N      0.611940000000     0.387360000000     0.548590000000    -0.177494   
N21      N      0.125260000000     0.082150000000     0.492230000000    -0.158695   
N22      N      0.205940000000     0.156420000000     0.478580000000    -0.1134     
N23      N      0.333380000000     0.335190000000     0.495910000000    -0.115939   
N24      N      0.428160000000     0.392850000000     0.504300000000    -0.230093   
N25      N      0.111060000000     0.887580000000     0.009740000000    -0.157963   
N26      N      0.174480000000     0.804150000000     0.015590000000    -0.113352   
N27      N      0.336410000000     0.672080000000     0.042950000000    -0.111913   
N28      N      0.412550000000     0.600500000000     0.039730000000    -0.177087   
N29      N      0.605570000000     0.581490000000     0.004870000000    -0.215229   
N30      N      0.661860000000     0.661350000000     0.966800000000    -0.116787   
N31      N      0.831510000000     0.804150000000     0.961540000000    -0.112482   
N32      N      0.897070000000     0.888540000000     0.977110000000    -0.166627   
N33      N      0.903670000000     0.102080000000     0.998290000000    -0.158683   
N34      N      0.828960000000     0.175100000000     0.006010000000    -0.11397    
N35      N      0.674370000000     0.316500000000     0.985930000000    -0.11238    
N36      N      0.603140000000     0.391870000000     0.995960000000    -0.179294   
N37      N      0.120800000000     0.100550000000     0.028140000000    -0.155433   
N38      N      0.195460000000     0.175890000000     0.051930000000    -0.113121   
N39      N      0.320410000000     0.355660000000     0.048740000000    -0.11579    
N40      N      0.418090000000     0.408330000000     0.039120000000    -0.23209    
O1       O      0.068370000000     0.945900000000     0.976830000000    -0.371198   
O2       O      0.966290000000     0.056780000000     0.971800000000    -0.367435   
O3       O      0.074790000000     0.052110000000     0.986510000000    -0.367418   
O4       O      0.959700000000     0.948940000000     0.960710000000    -0.397942   
O5       O      0.942440000000     0.936550000000     0.018850000000    -0.400865   
O6       O      0.054230000000     0.043560000000     0.044110000000    -0.394955   
O7       O      0.944990000000     0.042270000000     0.029090000000    -0.394446   
O8       O      0.050380000000     0.936270000000     0.034940000000    -0.393568   
O9       O      0.040330000000     0.921420000000     0.489190000000    -0.373219   
O10      O      0.951920000000     0.040610000000     0.504080000000    -0.384506   
O11      O      0.054910000000     0.027940000000     0.479810000000    -0.37351    
O12      O      0.936060000000     0.934390000000     0.513690000000    -0.400161   
O13      O      0.968040000000     0.936890000000     0.569320000000    -0.398578   
O14      O      0.080620000000     0.038180000000     0.536440000000    -0.39246    
O15      O      0.976030000000     0.043910000000     0.561390000000    -0.374021   
O16      O      0.072800000000     0.932040000000     0.544070000000    -0.394755   
O17      O      0.517730000000     0.527110000000     0.967660000000    -0.47884    
O18      O      0.558090000000     0.524490000000     0.066960000000    -0.453369   
O19      O      0.586150000000     0.474170000000     0.005020000000    -0.474296   
O20      O      0.492910000000     0.577110000000     0.023370000000    -0.464002   
O21      O      0.432850000000     0.518250000000     0.038090000000    -0.482646   
O22      O      0.523470000000     0.415600000000     0.013490000000    -0.477171   
O23      O      0.501330000000     0.460510000000     0.074600000000    -0.490881   
O24      O      0.456900000000     0.467370000000     0.977390000000    -0.486713   
O25      O      0.565970000000     0.514610000000     0.477180000000    -0.466397   
O26      O      0.522160000000     0.518340000000     0.574900000000    -0.471792   
O27      O      0.590920000000     0.467700000000     0.536580000000    -0.47051    
O28      O      0.490280000000     0.563470000000     0.516330000000    -0.451386   
O29      O      0.433210000000     0.501710000000     0.502800000000    -0.478237   
O30      O      0.529630000000     0.406790000000     0.533560000000    -0.473931   
O31      O      0.459390000000     0.460350000000     0.565070000000    -0.477374   
O32      O      0.509860000000     0.450210000000     0.468990000000    -0.485142   
O33      O      0.423310000000     0.593490000000     0.599500000000    -0.183764   
O34      O      0.472560000000     0.642550000000     0.655020000000    -0.286028   
O35      O      0.526480000000     0.617290000000     0.596150000000    -0.170292   
O36      O      0.673550000000     0.425390000000     0.412250000000    -0.186673   
O37      O      0.718540000000     0.520320000000     0.409590000000    -0.282021   
O38      O      0.669800000000     0.485890000000     0.470180000000    -0.180346   
O39      O      0.124080000000     0.933930000000     0.438200000000    -0.16762    
O40      O      0.126000000000     0.848590000000     0.398740000000    -0.284814   
O41      O      0.034730000000     0.879200000000     0.423110000000    -0.170265   
O42      O      0.539370000000     0.669740000000     0.511030000000    -0.178154   
O43      O      0.607150000000     0.683390000000     0.455910000000    -0.282479   
O44      O      0.539250000000     0.602640000000     0.456490000000    -0.176483   
O45      O      0.017840000000     0.150340000000     0.572600000000    -0.168207   
O46      O      0.963670000000     0.186520000000     0.628430000000    -0.284961   
O47      O      0.985030000000     0.088790000000     0.626990000000    -0.173566   
O48      O      0.023310000000     0.126440000000     0.464070000000    -0.17157    
O49      O      0.073510000000     0.160300000000     0.403970000000    -0.283885   
O50      O      0.048290000000     0.061110000000     0.411870000000    -0.165032   
O51      O      0.179740000000     0.980600000000     0.991290000000    -0.167752   
O52      O      0.238630000000     0.926700000000     0.947210000000    -0.284805   
O53      O      0.143430000000     0.950610000000     0.925540000000    -0.157615   
O54      O      0.642080000000     0.603220000000     0.081900000000    -0.186277   
O55      O      0.612080000000     0.698350000000     0.077240000000    -0.284905   
O56      O      0.539560000000     0.621380000000     0.080320000000    -0.179623   
O57      O      0.973270000000     0.141560000000     0.930880000000    -0.156413   
O58      O      0.982370000000     0.233670000000     0.962010000000    -0.284519   
O59      O      0.027370000000     0.155900000000     0.993240000000    -0.168565   
O60      O      0.100980000000     0.137430000000     0.944680000000    -0.155073   
O61      O      0.204930000000     0.145410000000     0.935130000000    -0.274626   
O62      O      0.155010000000     0.054600000000     0.941280000000    -0.14066    
S1       S      0.477840000000     0.598770000000     0.622960000000     0.283425   
S2       S      0.668380000000     0.483940000000     0.425720000000     0.281478   
S3       S      0.096920000000     0.876460000000     0.433150000000     0.288418   
S4       S      0.576070000000     0.640350000000     0.482490000000     0.279027   
S5       S      0.970250000000     0.136720000000     0.601520000000     0.287621   
S6       S      0.067400000000     0.113010000000     0.433830000000     0.28762    
S7       S      0.177820000000     0.935110000000     0.960950000000     0.29188    
S8       S      0.597920000000     0.638550000000     0.064690000000     0.274501   
S9       S      0.976510000000     0.171580000000     0.969850000000     0.286759   
S10      S      0.155820000000     0.112950000000     0.956120000000     0.290901   


