data_structure

_audit_creation_method RASPA-1.0
_audit_creation_date 2023-5-25
_audit_author_name 'Poobodin Mano'

_cell_length_a    36.8167
_cell_length_b    36.1601
_cell_length_c    36.7276
_cell_angle_alpha 90
_cell_angle_beta  90
_cell_angle_gamma 90
_cell_volume      48895.3

_symmetry_cell_setting          triclinic
_symmetry_space_group_name_Hall 'P 1'
_symmetry_space_group_name_H-M  'P 1'
_symmetry_Int_Tables_number     1

_symmetry_equiv_pos_as_xyz 'x,y,z'

loop_
_atom_site_label
_atom_site_type_symbol
_atom_site_fract_x
_atom_site_fract_y
_atom_site_fract_z
_atom_site_charge
C1       C      0.972910000000     0.970570000000     0.108160000000     0.298612   
C2       C      0.072890000000     0.072480000000     0.133460000000     0.300773   
C3       C      0.074470000000     0.973470000000     0.104030000000     0.296373   
C4       C      0.971370000000     0.069560000000     0.137420000000     0.297931   
C5       C      0.089930000000     0.961580000000     0.592210000000     0.298974   
C6       C      0.004920000000     0.072750000000     0.631040000000     0.300804   
C7       C      0.102690000000     0.063380000000     0.604770000000     0.299454   
C8       C      0.992140000000     0.970910000000     0.618460000000     0.298045   
C9       C      0.955060000000     0.538740000000     0.082490000000     0.475329   
C10      C      0.010040000000     0.536500000000     0.955790000000     0.475088   
C11      C      0.046700000000     0.542970000000     0.048940000000     0.47754    
C12      C      0.922200000000     0.530840000000     0.991580000000     0.476146   
C13      C      0.015180000000     0.536820000000     0.450160000000     0.479712   
C14      C      0.054200000000     0.537340000000     0.582810000000     0.472563   
C15      C      0.967320000000     0.535000000000     0.537970000000     0.367135   
C16      C      0.098640000000     0.536240000000     0.498650000000     0.360131   
C17      C      0.522310000000     0.030520000000     0.068790000000     0.480936   
C18      C      0.523750000000     0.069550000000     0.936090000000     0.47388    
C19      C      0.519990000000     0.981770000000     0.982260000000     0.367232   
C20      C      0.519860000000     0.115510000000     0.021420000000     0.363184   
C21      C      0.522880000000     0.961400000000     0.435560000000     0.475822   
C22      C      0.522460000000     0.012380000000     0.564350000000     0.47564    
C23      C      0.534340000000     0.052750000000     0.474370000000     0.477724   
C24      C      0.517450000000     0.923240000000     0.524800000000     0.476862   
C25      C      0.473150000000     0.570390000000     0.919970000000     0.467002   
C26      C      0.485410000000     0.534610000000     0.053020000000     0.47278    
C27      C      0.411900000000     0.557700000000     0.993270000000     0.479026   
C28      C      0.548210000000     0.550290000000     0.977110000000     0.475049   
C29      C      0.515240000000     0.555880000000     0.470370000000     0.476319   
C30      C      0.545000000000     0.424520000000     0.508630000000     0.475574   
C31      C      0.529350000000     0.508720000000     0.555620000000     0.470673   
C32      C      0.532630000000     0.471330000000     0.422060000000     0.472058   
C33      C      0.467620000000     0.547870000000     0.824940000000    -0.0311151  
C34      C      0.548430000000     0.557270000000     0.643300000000    -0.031829   
C35      C      0.499640000000     0.500490000000     0.614980000000    -0.0027279  
C36      C      0.559940000000     0.534640000000     0.609820000000    -0.00241763 
C37      C      0.534750000000     0.534500000000     0.732700000000    -0.0539228  
C38      C      0.484520000000     0.591660000000     0.742270000000    -0.0537598  
C39      C      0.518690000000     0.550900000000     0.702130000000     0.0607898  
C40      C      0.491170000000     0.524550000000     0.648000000000    -0.0313094  
C41      C      0.498660000000     0.573480000000     0.772840000000     0.0609393  
C42      C      0.509140000000     0.600000000000     0.832880000000    -0.0426562  
C43      C      0.525250000000     0.545920000000     0.767790000000    -0.056155   
C44      C      0.490230000000     0.611550000000     0.868760000000     0.0412514  
C45      C      0.446740000000     0.558010000000     0.859320000000    -0.00173017 
C46      C      0.494760000000     0.580890000000     0.707140000000    -0.0561361  
C47      C      0.511640000000     0.536730000000     0.150980000000    -0.0323107  
C48      C      0.492460000000     0.456610000000     0.332970000000    -0.031399   
C49      C      0.564330000000     0.472010000000     0.362540000000    -0.00314196 
C50      C      0.504170000000     0.439640000000     0.369300000000    -0.00350934 
C51      C      0.534650000000     0.458320000000     0.243820000000    -0.0541298  
C52      C      0.480770000000     0.510630000000     0.229230000000    -0.0535428  
C53      C      0.515400000000     0.474140000000     0.272840000000     0.0608801  
C54      C      0.550520000000     0.488570000000     0.326710000000    -0.0314331  
C55      C      0.499300000000     0.494060000000     0.200140000000     0.060858   
C56      C      0.490640000000     0.475090000000     0.136350000000    -0.0422736  
C57      C      0.527240000000     0.468570000000     0.207840000000    -0.0558805  
C58      C      0.472900000000     0.487890000000     0.100520000000     0.0402468  
C59      C      0.494150000000     0.553310000000     0.116890000000    -0.000971483
C60      C      0.489130000000     0.501410000000     0.265230000000    -0.0561276  
C61      C      0.537790000000     0.827390000000     0.521960000000    -0.031703   
C62      C      0.468750000000     0.641940000000     0.482180000000    -0.031899   
C63      C      0.536260000000     0.617140000000     0.448850000000    -0.00219703 
C64      C      0.470040000000     0.605880000000     0.460280000000    -0.00245368 
C65      C      0.492230000000     0.734920000000     0.463530000000    -0.0543203  
C66      C      0.499860000000     0.743700000000     0.538810000000    -0.0541348  
C67      C      0.494690000000     0.703650000000     0.485840000000     0.0614401  
C68      C      0.533700000000     0.652350000000     0.471520000000    -0.0313104  
C69      C      0.498070000000     0.774960000000     0.516420000000     0.0615409  
C70      C      0.471780000000     0.835810000000     0.525060000000    -0.042857   
C71      C      0.494070000000     0.770310000000     0.478530000000    -0.0564725  
C72      C      0.476220000000     0.872930000000     0.545060000000     0.0419672  
C73      C      0.544230000000     0.863190000000     0.542990000000    -0.00126636 
C74      C      0.498400000000     0.708260000000     0.523750000000    -0.0564621  
C75      C      0.581190000000     0.139700000000     0.471550000000    -0.0316796  
C76      C      0.525580000000     0.327910000000     0.512670000000    -0.0312184  
C77      C      0.589910000000     0.374370000000     0.519480000000    -0.00258508 
C78      C      0.523810000000     0.364520000000     0.533140000000    -0.00207178 
C79      C      0.565130000000     0.245530000000     0.525610000000    -0.0544338  
C80      C      0.556330000000     0.231560000000     0.451230000000    -0.0539523  
C81      C      0.563460000000     0.275190000000     0.501180000000     0.0614003  
C82      C      0.590300000000     0.336830000000     0.500000000000    -0.0319359  
C83      C      0.557340000000     0.201940000000     0.475760000000     0.0612797  
C84      C      0.515630000000     0.150590000000     0.473900000000    -0.0428992  
C85      C      0.561920000000     0.209210000000     0.513170000000    -0.0564124  
C86      C      0.507650000000     0.112950000000     0.456070000000     0.0419222  
C87      C      0.575590000000     0.102400000000     0.452850000000    -0.00142943 
C88      C      0.559150000000     0.267940000000     0.463730000000    -0.0563915  
C89      C      0.534590000000     0.883230000000     0.066260000000    -0.0270684  
C90      C      0.466880000000     0.704440000000     0.998600000000    -0.0223142  
C91      C      0.523180000000     0.653260000000     0.019240000000    -0.0172055  
C92      C      0.469630000000     0.665360000000     0.982800000000    -0.019627   
C93      C      0.518800000000     0.783200000000     0.002250000000    -0.0543341  
C94      C      0.483380000000     0.801500000000     0.067170000000    -0.053968   
C95      C      0.502060000000     0.755290000000     0.022710000000     0.0614072  
C96      C      0.521360000000     0.692360000000     0.035230000000    -0.0237443  
C97      C      0.500280000000     0.829350000000     0.046830000000     0.0614647  
C98      C      0.475590000000     0.890560000000     0.036200000000    -0.0380304  
C99      C      0.517850000000     0.819980000000     0.014030000000    -0.056399   
C100     C      0.470110000000     0.928830000000     0.053780000000     0.0257713  
C101     C      0.530580000000     0.920750000000     0.085140000000    -0.0204523  
C102     C      0.484070000000     0.764800000000     0.055260000000    -0.0564511  
C103     C      0.497810000000     0.214440000000     0.956610000000    -0.0263972  
C104     C      0.437230000000     0.408370000000     0.958370000000    -0.0216668  
C105     C      0.503730000000     0.443860000000     0.979910000000    -0.026131   
C106     C      0.438560000000     0.448790000000     0.970850000000    -0.022091   
C107     C      0.462790000000     0.322850000000     0.994970000000    -0.0540567  
C108     C      0.467770000000     0.297630000000     0.923160000000    -0.0538874  
C109     C      0.465770000000     0.348480000000     0.966530000000     0.0614704  
C110     C      0.502810000000     0.403690000000     0.966920000000    -0.0201391  
C111     C      0.464760000000     0.272020000000     0.951590000000     0.061734   
C112     C      0.431280000000     0.214160000000     0.954610000000    -0.0386066  
C113     C      0.462390000000     0.284910000000     0.987700000000    -0.0563798  
C114     C      0.430870000000     0.173980000000     0.940670000000     0.0258994  
C115     C      0.499370000000     0.175060000000     0.941560000000    -0.0207162  
C116     C      0.468420000000     0.335550000000     0.930440000000    -0.0564306  
C117     C      0.490410000000     0.071140000000     0.843290000000    -0.0318871  
C118     C      0.555570000000     0.042970000000     0.656400000000    -0.0314528  
C119     C      0.487220000000     0.026840000000     0.619150000000    -0.00199445 
C120     C      0.556930000000     0.021240000000     0.620760000000    -0.00212016 
C121     C      0.520600000000     0.020750000000     0.740630000000    -0.0541439  
C122     C      0.524280000000     0.095890000000     0.758310000000    -0.0537775  
C123     C      0.521960000000     0.047110000000     0.712780000000     0.0616695  
C124     C      0.490270000000     0.048130000000     0.654950000000    -0.0313187  
C125     C      0.522860000000     0.069480000000     0.786190000000     0.0614828  
C126     C      0.556680000000     0.069290000000     0.842570000000    -0.0428085  
C127     C      0.521100000000     0.031690000000     0.777050000000    -0.0561616  
C128     C      0.558940000000     0.086320000000     0.880900000000     0.0417877  
C129     C      0.490070000000     0.089120000000     0.880900000000    -0.00149204 
C130     C      0.523890000000     0.084900000000     0.721820000000    -0.0564825  
C131     C      0.554610000000     0.997860000000     0.159820000000    -0.0307938  
C132     C      0.489100000000     0.959590000000     0.344700000000    -0.0317417  
C133     C      0.556010000000     0.938030000000     0.381310000000    -0.00249263 
C134     C      0.488060000000     0.940090000000     0.381610000000    -0.00229123 
C135     C      0.521150000000     0.939610000000     0.258260000000    -0.0541956  
C136     C      0.522800000000     0.015970000000     0.246290000000    -0.0536192  
C137     C      0.522090000000     0.963800000000     0.288050000000     0.0615136  
C138     C      0.555690000000     0.957470000000     0.344300000000    -0.0318166  
C139     C      0.521800000000     0.991830000000     0.216530000000     0.0619507  
C140     C      0.488920000000     0.998030000000     0.159590000000    -0.0421819  
C141     C      0.521040000000     0.953410000000     0.222690000000    -0.0564298  
C142     C      0.486890000000     0.022220000000     0.125240000000     0.0425901  
C143     C      0.556720000000     0.021700000000     0.125530000000    -0.00106588 
C144     C      0.522980000000     0.002220000000     0.281770000000    -0.0563214  
C145     C      0.853560000000     0.589430000000     0.497270000000    -0.0265305  
C146     C      0.680550000000     0.490070000000     0.474540000000    -0.0237465  
C147     C      0.629580000000     0.538690000000     0.509830000000    -0.01812    
C148     C      0.641700000000     0.478300000000     0.483940000000    -0.017107   
C149     C      0.756350000000     0.523700000000     0.519860000000    -0.0542967  
C150     C      0.777050000000     0.555860000000     0.453780000000    -0.0540956  
C151     C      0.730120000000     0.529880000000     0.492880000000     0.0611631  
C152     C      0.668210000000     0.551300000000     0.500580000000    -0.0233172  
C153     C      0.803270000000     0.549510000000     0.480670000000     0.0613998  
C154     C      0.865170000000     0.527390000000     0.473200000000    -0.038725   
C155     C      0.792650000000     0.533440000000     0.513930000000    -0.0564644  
C156     C      0.903070000000     0.538960000000     0.459610000000     0.0258215  
C157     C      0.890660000000     0.603050000000     0.483990000000    -0.0214318  
C158     C      0.740780000000     0.546230000000     0.459730000000    -0.0565143  
C159     C      0.202370000000     0.434850000000     0.541970000000    -0.0265722  
C160     C      0.382450000000     0.476400000000     0.464980000000    -0.0228535  
C161     C      0.428360000000     0.468150000000     0.527910000000    -0.0191911  
C162     C      0.421370000000     0.491290000000     0.466250000000    -0.0197411  
C163     C      0.303400000000     0.490330000000     0.514100000000    -0.0544365  
C164     C      0.281390000000     0.419660000000     0.492350000000    -0.0539096  
C165     C      0.329450000000     0.464760000000     0.502360000000     0.0614741  
C166     C      0.389410000000     0.453320000000     0.527230000000    -0.0228954  
C167     C      0.255350000000     0.445190000000     0.504230000000     0.0613376  
C168     C      0.195490000000     0.455820000000     0.478820000000    -0.0379727  
C169     C      0.266630000000     0.480770000000     0.515020000000    -0.0563907  
C170     C      0.156520000000     0.440480000000     0.477130000000     0.0251913  
C171     C      0.164140000000     0.418230000000     0.541760000000    -0.0209245  
C172     C      0.318150000000     0.429260000000     0.491350000000    -0.0565767  
C173     C      0.836550000000     0.563050000000     0.952150000000    -0.0319585  
C174     C      0.647140000000     0.559610000000     0.991370000000    -0.0318469  
C175     C      0.597730000000     0.526910000000     0.938680000000    -0.00315285 
C176     C      0.609040000000     0.575560000000     0.987620000000    -0.000732866
C177     C      0.721340000000     0.572910000000     0.957530000000    -0.0535777  
C178     C      0.753050000000     0.503420000000     0.949650000000    -0.0531839  
C179     C      0.698800000000     0.541750000000     0.954550000000     0.060497   
C180     C      0.637610000000     0.515640000000     0.942800000000    -0.031593   
C181     C      0.775610000000     0.534340000000     0.954750000000     0.0604115  
C182     C      0.826240000000     0.507320000000     0.987610000000    -0.0432272  
C183     C      0.759010000000     0.569340000000     0.958880000000    -0.0547245  
C184     C      0.865940000000     0.494920000000     0.983490000000     0.042707   
C185     C      0.876830000000     0.554030000000     0.947640000000    -0.000973891
C186     C      0.715290000000     0.506710000000     0.950770000000    -0.0550006  
C187     C      0.322610000000     0.594350000000     0.023070000000    -0.0319835  
C188     C      0.139840000000     0.519410000000     0.053340000000    -0.0319483  
C189     C      0.095550000000     0.582440000000     0.074700000000    -0.00171443 
C190     C      0.103180000000     0.513810000000     0.072100000000    -0.00202014 
C191     C      0.221700000000     0.557850000000     0.073820000000    -0.0543784  
C192     C      0.233750000000     0.566520000000     0.999110000000    -0.0535661  
C193     C      0.192060000000     0.559380000000     0.049970000000     0.0616067  
C194     C      0.132360000000     0.586890000000     0.055990000000    -0.0319627  
C195     C      0.263370000000     0.564810000000     0.022900000000     0.061515   
C196     C      0.316930000000     0.528720000000     0.010400000000    -0.0431532  
C197     C      0.257150000000     0.560310000000     0.060480000000    -0.0563944  
C198     C      0.351800000000     0.528150000000     0.987540000000     0.0427066  
C199     C      0.357770000000     0.597290000000     0.001070000000    -0.00139492 
C200     C      0.198360000000     0.563640000000     0.012370000000    -0.0568461  
C201     C      0.041670000000     0.500970000000     0.864650000000    -0.032125   
C202     C      0.058440000000     0.569160000000     0.676410000000    -0.031939   
C203     C      0.076790000000     0.502280000000     0.636280000000    -0.00223017 
C204     C      0.073940000000     0.571710000000     0.637830000000    -0.00230223 
C205     C      0.087660000000     0.534720000000     0.759420000000    -0.0540795  
C206     C      0.014420000000     0.531910000000     0.779400000000    -0.053843   
C207     C      0.060830000000     0.534120000000     0.732340000000     0.0610117  
C208     C      0.061070000000     0.501640000000     0.674800000000    -0.0319023  
C209     C      0.041190000000     0.532820000000     0.806430000000     0.0619259  
C210     C      0.040220000000     0.567650000000     0.862890000000    -0.0425445  
C211     C      0.078020000000     0.534070000000     0.796260000000    -0.0568033  
C212     C      0.018550000000     0.570690000000     0.898450000000     0.0416011  
C213     C      0.021120000000     0.499430000000     0.900880000000    -0.0011058  
C214     C      0.024020000000     0.532510000000     0.742660000000    -0.056077   
C215     C      0.988100000000     0.572140000000     0.358250000000    -0.032838   
C216     C      0.950550000000     0.506720000000     0.173480000000    -0.0318955  
C217     C      0.931200000000     0.574440000000     0.135090000000    -0.00275584 
C218     C      0.931540000000     0.505280000000     0.136550000000    -0.00163226 
C219     C      0.930950000000     0.540930000000     0.258910000000    -0.0540035  
C220     C      0.005850000000     0.540450000000     0.271700000000    -0.0539054  
C221     C      0.955030000000     0.541380000000     0.229390000000     0.0611791  
C222     C      0.950030000000     0.574610000000     0.172300000000    -0.0318825  
C223     C      0.981800000000     0.539680000000     0.301190000000     0.0617748  
C224     C      0.985590000000     0.505220000000     0.357690000000    -0.0430145  
C225     C      0.944110000000     0.540170000000     0.294600000000    -0.0567556  
C226     C      0.007900000000     0.501840000000     0.392910000000     0.0421046  
C227     C      0.009990000000     0.572810000000     0.393610000000     0.000374496
C228     C      0.992710000000     0.541330000000     0.236060000000    -0.0562834  
C229     C      0.979550000000     0.864750000000     0.469140000000    -0.0266339  
C230     C      0.048910000000     0.688170000000     0.539120000000    -0.0249485  
C231     C      0.995930000000     0.642040000000     0.503670000000    -0.0217131  
C232     C      0.045250000000     0.646640000000     0.547000000000    -0.0148278  
C233     C      0.991140000000     0.766300000000     0.536150000000    -0.0540612  
C234     C      0.039280000000     0.795130000000     0.484550000000    -0.0539797  
C235     C      0.015870000000     0.742660000000     0.518840000000     0.0613103  
C236     C      0.999350000000     0.683100000000     0.494550000000    -0.0215834  
C237     C      0.014310000000     0.818650000000     0.501540000000     0.0618176  
C238     C      0.018040000000     0.883200000000     0.520420000000    -0.0367363  
C239     C      0.990150000000     0.803970000000     0.527530000000    -0.056502   
C240     C      0.020920000000     0.922990000000     0.505620000000     0.0237381  
C241     C      0.982480000000     0.903200000000     0.452140000000    -0.0200839  
C242     C      0.040020000000     0.757450000000     0.492860000000    -0.0562515  
C243     C      0.088360000000     0.200530000000     0.478740000000    -0.025857   
C244     C      0.048240000000     0.386720000000     0.548630000000    -0.0199845  
C245     C      0.047150000000     0.429450000000     0.482560000000    -0.0264563  
C246     C      0.049640000000     0.429040000000     0.548860000000    -0.0237255  
C247     C      0.100060000000     0.315410000000     0.512690000000    -0.0539915  
C248     C      0.037250000000     0.271930000000     0.515110000000    -0.053558   
C249     C      0.065980000000     0.332560000000     0.514360000000     0.0623909  
C250     C      0.045500000000     0.387190000000     0.482340000000    -0.0186265  
C251     C      0.071300000000     0.254780000000     0.513430000000     0.0616742  
C252     C      0.091460000000     0.199770000000     0.545440000000    -0.0368948  
C253     C      0.102820000000     0.276840000000     0.512230000000    -0.0561515  
C254     C      0.088310000000     0.157300000000     0.546100000000     0.0193523  
C255     C      0.084390000000     0.158420000000     0.477540000000    -0.0227449  
C256     C      0.034480000000     0.310450000000     0.515560000000    -0.05665    
C257     C      0.668110000000     0.971570000000     0.542410000000    -0.024905   
C258     C      0.858350000000     0.957220000000     0.484750000000    -0.0258278  
C259     C      0.898540000000     0.959820000000     0.553000000000    -0.0242556  
C260     C      0.898740000000     0.967030000000     0.485310000000    -0.0235988  
C261     C      0.780960000000     0.996920000000     0.518250000000    -0.0542824  
C262     C      0.747490000000     0.927620000000     0.513730000000    -0.0540768  
C263     C      0.802360000000     0.964920000000     0.518230000000     0.0615986  
C264     C      0.857940000000     0.950580000000     0.551220000000    -0.0255637  
C265     C      0.726080000000     0.959640000000     0.513670000000     0.0611249  
C266     C      0.673500000000     0.971400000000     0.475910000000    -0.0362765  
C267     C      0.743170000000     0.994440000000     0.515900000000    -0.0561651  
C268     C      0.632350000000     0.964920000000     0.472230000000     0.0294619  
C269     C      0.627200000000     0.964760000000     0.539290000000    -0.0135908  
C270     C      0.785340000000     0.930110000000     0.515880000000    -0.0566413  
C271     C      0.188210000000     0.985480000000     0.512560000000    -0.0258229  
C272     C      0.381510000000     0.036960000000     0.505590000000    -0.0224951  
C273     C      0.415590000000     0.965370000000     0.503070000000    -0.0207998  
C274     C      0.421960000000     0.031360000000     0.513530000000    -0.0203932  
C275     C      0.300720000000     0.005490000000     0.542330000000    -0.0539804  
C276     C      0.268580000000     0.017820000000     0.474400000000    -0.0538386  
C277     C      0.322620000000     0.007690000000     0.511230000000     0.0616805  
C278     C      0.375030000000     0.970450000000     0.495400000000    -0.0219126  
C279     C      0.246660000000     0.015380000000     0.505470000000     0.0618952  
C280     C      0.193820000000     0.052630000000     0.519870000000    -0.0377144  
C281     C      0.263040000000     0.009360000000     0.539610000000    -0.0564809  
C282     C      0.153370000000     0.058170000000     0.510830000000     0.0243011  
C283     C      0.147950000000     0.989100000000     0.502850000000    -0.022156   
C284     C      0.306250000000     0.014080000000     0.477140000000    -0.0563937  
C285     C      0.012370000000     0.878160000000     0.024060000000    -0.0262007  
C286     C      0.971230000000     0.684570000000     0.978390000000    -0.0223616  
C287     C      0.001260000000     0.647350000000     0.040760000000    -0.0208379  
C288     C      0.978840000000     0.642940000000     0.978650000000    -0.0205848  
C289     C      0.024140000000     0.763420000000     0.990530000000    -0.054039   
C290     C      0.960170000000     0.800520000000     0.009280000000    -0.0537903  
C291     C      0.993760000000     0.743060000000     0.001660000000     0.0615516  
C292     C      0.993630000000     0.688980000000     0.040810000000    -0.0224485  
C293     C      0.990560000000     0.820890000000     0.998100000000     0.0616928  
C294     C      0.993880000000     0.875640000000     0.959940000000    -0.0385581  
C295     C      0.022710000000     0.802000000000     0.988790000000    -0.056257   
C296     C      0.987350000000     0.917730000000     0.959260000000     0.0256325  
C297     C      0.005270000000     0.919800000000     0.025460000000    -0.0223791  
C298     C      0.961650000000     0.761920000000     0.011150000000    -0.0564111  
C299     C      0.054960000000     0.202140000000     0.038650000000    -0.0261392  
C300     C      0.973480000000     0.387470000000     0.051760000000    -0.023245   
C301     C      0.027240000000     0.432960000000     0.016720000000    -0.020814   
C302     C      0.973580000000     0.429700000000     0.055000000000    -0.0184288  
C303     C      0.033470000000     0.316130000000     0.071430000000    -0.0544207  
C304     C      0.996380000000     0.274260000000     0.019300000000    -0.0539747  
C305     C      0.012670000000     0.334110000000     0.044870000000     0.0615526  
C306     C      0.027300000000     0.390820000000     0.012810000000    -0.0224113  
C307     C      0.016980000000     0.256280000000     0.046020000000     0.0613318  
C308     C      0.002510000000     0.200500000000     0.079730000000    -0.0386062  
C309     C      0.035740000000     0.277550000000     0.072070000000    -0.0564218  
C310     C      0.000190000000     0.158100000000     0.076780000000     0.0246134  
C311     C      0.053630000000     0.160120000000     0.033810000000    -0.0221228  
C312     C      0.994230000000     0.312850000000     0.018570000000    -0.0567955  
C313     C      0.669170000000     0.074640000000     0.026890000000    -0.0236617  
C314     C      0.857030000000     0.004230000000     0.025000000000    -0.0257328  
C315     C      0.895920000000     0.068640000000     0.052330000000    -0.0232146  
C316     C      0.898320000000     0.007420000000     0.020810000000    -0.0241891  
C317     C      0.782340000000     0.055790000000     0.996730000000    -0.0538714  
C318     C      0.743610000000     0.022920000000     0.053680000000    -0.0537928  
C319     C      0.801280000000     0.039970000000     0.025920000000     0.0612042  
C320     C      0.854730000000     0.064270000000     0.056120000000    -0.0258629  
C321     C      0.724670000000     0.038720000000     0.024500000000     0.0612583  
C322     C      0.670530000000     0.016120000000     0.994020000000    -0.0354458  
C323     C      0.744360000000     0.055260000000     0.995920000000    -0.0562914  
C324     C      0.629100000000     0.012060000000     0.998140000000     0.0263322  
C325     C      0.627930000000     0.071390000000     0.031640000000    -0.0179126  
C326     C      0.781570000000     0.023510000000     0.054520000000    -0.0563482  
C327     C      0.188660000000     0.054000000000     0.052650000000    -0.0264025  
C328     C      0.374250000000     0.077020000000     0.981320000000    -0.0213327  
C329     C      0.415620000000     0.037850000000     0.035490000000    -0.0214341  
C330     C      0.415500000000     0.081200000000     0.984960000000    -0.0230272  
C331     C      0.299660000000     0.091880000000     0.037160000000    -0.0541454  
C332     C      0.262180000000     0.039770000000     0.995270000000    -0.0533757  
C333     C      0.319240000000     0.066480000000     0.016090000000     0.0615962  
C334     C      0.374350000000     0.033640000000     0.032310000000    -0.0218497  
C335     C      0.242610000000     0.065040000000     0.016510000000     0.0612395  
C336     C      0.186720000000     0.097010000000     0.001040000000    -0.0386261  
C337     C      0.261690000000     0.091290000000     0.037430000000    -0.0561359  
C338     C      0.145260000000     0.092260000000     0.997550000000     0.0246549  
C339     C      0.147680000000     0.047410000000     0.050060000000    -0.0210518  
C340     C      0.300160000000     0.040390000000     0.994970000000    -0.0562716  
C341     C      0.980040000000     0.072460000000     0.928840000000    -0.026542   
C342     C      0.105190000000     0.994540000000     0.792730000000    -0.0257223  
C343     C      0.078130000000     0.030330000000     0.727100000000    -0.0199071  
C344     C      0.115560000000     0.980050000000     0.754960000000    -0.0232621  
C345     C      0.024630000000     0.006520000000     0.840240000000    -0.0537975  
C346     C      0.060790000000     0.059420000000     0.882350000000    -0.053139   
C347     C      0.056330000000     0.023030000000     0.826820000000     0.0621784  
C348     C      0.068470000000     0.043880000000     0.765350000000    -0.0261141  
C349     C      0.029010000000     0.043040000000     0.895680000000     0.0626852  
C350     C      0.015770000000     0.023270000000     0.957330000000    -0.0378123  
C351     C      0.010980000000     0.016350000000     0.874400000000    -0.0561616  
C352     C      0.006630000000     0.037710000000     0.995620000000     0.0254035  
C353     C      0.970180000000     0.088650000000     0.966050000000    -0.0214728  
C354     C      0.074450000000     0.049570000000     0.848230000000    -0.0558279  
C355     C      0.045870000000     0.984090000000     0.274490000000    -0.0264758  
C356     C      0.980590000000     0.027100000000     0.458790000000    -0.0242273  
C357     C      0.047050000000     0.050490000000     0.494840000000    -0.0277662  
C358     C      0.982510000000     0.029950000000     0.500340000000    -0.0230237  
C359     C      0.027520000000     0.978130000000     0.391820000000    -0.0544275  
C360     C      0.001540000000     0.031300000000     0.343070000000    -0.0535896  
C361     C      0.015810000000     0.012430000000     0.405020000000     0.0636022  
C362     C      0.043870000000     0.047800000000     0.453410000000    -0.0230788  
C363     C      0.012630000000     0.996740000000     0.329970000000     0.0621793  
C364     C      0.984810000000     0.958660000000     0.283250000000    -0.0377866  
C365     C      0.025970000000     0.970200000000     0.354630000000    -0.056369   
C366     C      0.979100000000     0.955270000000     0.241860000000     0.0210157  
C367     C      0.041690000000     0.982410000000     0.233090000000    -0.0194608  
C368     C      0.003210000000     0.039260000000     0.380250000000    -0.0570087  
Cu1      Cu     0.021340000000     0.031400000000     0.088370000000     0.843957   
Cu2      Cu     0.024500000000     0.011610000000     0.153190000000     0.837452   
Cu3      Cu     0.039180000000     0.022380000000     0.579170000000     0.845253   
Cu4      Cu     0.055650000000     0.011920000000     0.644100000000     0.82972    
Cu5      Cu     0.986830000000     0.498310000000     0.022150000000     1.20656    
Cu6      Cu     0.981880000000     0.576420000000     0.017640000000     1.20169    
Cu7      Cu     0.032780000000     0.496740000000     0.516780000000     1.18328    
Cu8      Cu     0.032300000000     0.575600000000     0.517270000000     1.19302    
Cu9      Cu     0.482730000000     0.048720000000     0.001650000000     1.19278    
Cu10     Cu     0.560410000000     0.048400000000     0.002380000000     1.19252    
Cu11     Cu     0.486180000000     0.992690000000     0.498040000000     1.20746    
Cu12     Cu     0.562590000000     0.983690000000     0.500930000000     1.21023    
Cu13     Cu     0.476240000000     0.515520000000     0.976410000000     1.19895    
Cu14     Cu     0.484410000000     0.590460000000     0.996250000000     1.19291    
Cu15     Cu     0.493090000000     0.481430000000     0.490210000000     1.20584    
Cu16     Cu     0.568080000000     0.498770000000     0.487230000000     1.19487    
H1       H      0.482650000000     0.594720000000     0.684010000000     0.0404931  
H2       H      0.448480000000     0.534330000000     0.805620000000     0.0354271  
H3       H      0.521090000000     0.624710000000     0.819250000000     0.039923   
H4       H      0.509010000000     0.472970000000     0.624690000000     0.0351072  
H5       H      0.422860000000     0.575000000000     0.851350000000     0.0379026  
H6       H      0.573340000000     0.565700000000     0.658330000000     0.0342055  
H7       H      0.473120000000     0.508610000000     0.666600000000     0.034453   
H8       H      0.574610000000     0.553130000000     0.590580000000     0.035438   
H9       H      0.511750000000     0.621090000000     0.887840000000     0.0303926  
H10      H      0.464460000000     0.613290000000     0.745690000000     0.0453408  
H11      H      0.436060000000     0.532380000000     0.872150000000     0.0421106  
H12      H      0.553640000000     0.511800000000     0.729300000000     0.0441762  
H13      H      0.489140000000     0.527560000000     0.832270000000     0.0393183  
H14      H      0.474020000000     0.496030000000     0.599590000000     0.0373467  
H15      H      0.534020000000     0.582810000000     0.634390000000     0.036868   
H16      H      0.476190000000     0.549590000000     0.638740000000     0.0367678  
H17      H      0.537280000000     0.531960000000     0.790900000000     0.0405428  
H18      H      0.532080000000     0.581120000000     0.839620000000     0.0397401  
H19      H      0.579260000000     0.512770000000     0.618660000000     0.0366183  
H20      H      0.474810000000     0.515470000000     0.286880000000     0.0405557  
H21      H      0.512560000000     0.558620000000     0.172290000000     0.0339566  
H22      H      0.476570000000     0.450070000000     0.147120000000     0.0397024  
H23      H      0.580270000000     0.446670000000     0.356270000000     0.0353607  
H24      H      0.468230000000     0.566930000000     0.124750000000     0.0392387  
H25      H      0.473290000000     0.437290000000     0.319300000000     0.0348532  
H26      H      0.574270000000     0.493020000000     0.308450000000     0.0339545  
H27      H      0.480010000000     0.436870000000     0.387240000000     0.0395489  
H28      H      0.479180000000     0.466700000000     0.079500000000     0.0308903  
H29      H      0.459970000000     0.531100000000     0.223900000000     0.0443312  
H30      H      0.512500000000     0.575130000000     0.106030000000     0.0376634  
H31      H      0.555720000000     0.438140000000     0.249190000000     0.0436542  
H32      H      0.540080000000     0.528170000000     0.144970000000     0.0372406  
H33      H      0.582850000000     0.492260000000     0.375730000000     0.0402494  
H34      H      0.477890000000     0.482890000000     0.338860000000     0.037571   
H35      H      0.537610000000     0.515910000000     0.332040000000     0.0389059  
H36      H      0.543140000000     0.456230000000     0.186280000000     0.0400557  
H37      H      0.519120000000     0.466830000000     0.130140000000     0.0378198  
H38      H      0.514740000000     0.411350000000     0.363960000000     0.0347409  
H39      H      0.501160000000     0.684580000000     0.541540000000     0.0406129  
H40      H      0.560350000000     0.807940000000     0.528320000000     0.0351567  
H41      H      0.445780000000     0.822320000000     0.533170000000     0.0398487  
H42      H      0.532130000000     0.624530000000     0.419740000000     0.0342825  
H43      H      0.547130000000     0.856390000000     0.572360000000     0.0373841  
H44      H      0.441330000000     0.654480000000     0.479010000000     0.0346454  
H45      H      0.553910000000     0.672550000000     0.460870000000     0.0342064  
H46      H      0.450150000000     0.586050000000     0.471990000000     0.037317   
H47      H      0.454370000000     0.891550000000     0.535100000000     0.0306178  
H48      H      0.503380000000     0.746860000000     0.567920000000     0.0450243  
H49      H      0.570320000000     0.875520000000     0.533840000000     0.0405556  
H50      H      0.489980000000     0.731770000000     0.434290000000     0.0439816  
H51      H      0.538440000000     0.833460000000     0.492230000000     0.039642   
H52      H      0.564020000000     0.605400000000     0.451570000000     0.0398392  
H53      H      0.472970000000     0.635310000000     0.511470000000     0.0380652  
H54      H      0.540750000000     0.645900000000     0.500320000000     0.0388472  
H55      H      0.493260000000     0.793940000000     0.460490000000     0.0407871  
H56      H      0.469890000000     0.841830000000     0.495390000000     0.0398284  
H57      H      0.461710000000     0.611950000000     0.431800000000     0.034048   
H58      H      0.556900000000     0.290340000000     0.444330000000     0.0410502  
H59      H      0.607530000000     0.151480000000     0.462240000000     0.0348819  
H60      H      0.493680000000     0.170660000000     0.467030000000     0.0396432  
H61      H      0.599070000000     0.370220000000     0.548030000000     0.0348047  
H62      H      0.578080000000     0.106460000000     0.422950000000     0.0372123  
H63      H      0.505330000000     0.308720000000     0.524940000000     0.0344743  
H64      H      0.617660000000     0.324210000000     0.503340000000     0.0345287  
H65      H      0.496110000000     0.376360000000     0.530240000000     0.0403772  
H66      H      0.482590000000     0.101940000000     0.469000000000     0.0310795  
H67      H      0.552340000000     0.226420000000     0.422460000000     0.0453391  
H68      H      0.597750000000     0.083380000000     0.461290000000     0.0406149  
H69      H      0.567770000000     0.250720000000     0.554530000000     0.0439266  
H70      H      0.582770000000     0.135090000000     0.501480000000     0.038239   
H71      H      0.609530000000     0.393200000000     0.505850000000     0.0367062  
H72      H      0.518060000000     0.332580000000     0.483640000000     0.0400102  
H73      H      0.585460000000     0.341490000000     0.470440000000     0.0378225  
H74      H      0.562120000000     0.186930000000     0.532840000000     0.0403973  
H75      H      0.515140000000     0.146870000000     0.504020000000     0.0398926  
H76      H      0.528410000000     0.358960000000     0.562560000000     0.034248   
H77      H      0.470490000000     0.743930000000     0.071400000000     0.0409226  
H78      H      0.550930000000     0.864750000000     0.084120000000     0.0338644  
H79      H      0.448770000000     0.877170000000     0.031160000000     0.0397718  
H80      H      0.541150000000     0.652920000000     0.994880000000     0.0367277  
H81      H      0.520830000000     0.916630000000     0.113480000000     0.0377556  
H82      H      0.455330000000     0.723020000000     0.977410000000     0.0335725  
H83      H      0.549510000000     0.702100000000     0.040590000000     0.0325621  
H84      H      0.441950000000     0.655150000000     0.976310000000     0.0336665  
H85      H      0.458200000000     0.947880000000     0.033350000000     0.0341335  
H86      H      0.469460000000     0.808350000000     0.092250000000     0.0450872  
H87      H      0.557230000000     0.935100000000     0.086120000000     0.036461   
H88      H      0.532470000000     0.776400000000     0.977020000000     0.0446217  
H89      H      0.549530000000     0.887120000000     0.040190000000     0.0370566  
H90      H      0.534760000000     0.634290000000     0.039990000000     0.0336657  
H91      H      0.448020000000     0.704040000000     0.022300000000     0.036704   
H92      H      0.506520000000     0.691150000000     0.061610000000     0.0362405  
H93      H      0.530710000000     0.841050000000     0.997540000000     0.0409545  
H94      H      0.488830000000     0.894410000000     0.009190000000     0.0387062  
H95      H      0.485760000000     0.665830000000     0.957170000000     0.0392606  
H96      H      0.471190000000     0.354700000000     0.907970000000     0.0408542  
H97      H      0.522550000000     0.229490000000     0.947450000000     0.0349812  
H98      H      0.406930000000     0.229360000000     0.944510000000     0.0395931  
H99      H      0.501350000000     0.444760000000     0.010070000000     0.0383706  
H100     H      0.504250000000     0.176080000000     0.911730000000     0.0434047  
H101     H      0.410670000000     0.396360000000     0.966680000000     0.0328328  
H102     H      0.524570000000     0.388090000000     0.981280000000     0.0317063  
H103     H      0.417310000000     0.464320000000     0.955830000000     0.0374857  
H104     H      0.408930000000     0.158610000000     0.954830000000     0.023776   
H105     H      0.469870000000     0.288090000000     0.895290000000     0.0454553  
H106     H      0.521920000000     0.159480000000     0.954460000000     0.039429   
H107     H      0.461050000000     0.332370000000     0.022870000000     0.0441546  
H108     H      0.497900000000     0.213440000000     0.986920000000     0.0365146  
H109     H      0.530300000000     0.455920000000     0.972160000000     0.0345919  
H110     H      0.439050000000     0.407530000000     0.928120000000     0.0358912  
H111     H      0.508460000000     0.402810000000     0.937140000000     0.0355982  
H112     H      0.460410000000     0.265680000000     0.010190000000     0.040834   
H113     H      0.429480000000     0.213560000000     0.984870000000     0.0390032  
H114     H      0.432670000000     0.450700000000     0.000510000000     0.0381744  
H115     H      0.525130000000     0.105770000000     0.700730000000     0.0404172  
H116     H      0.465980000000     0.080660000000     0.828090000000     0.0360957  
H117     H      0.581340000000     0.076720000000     0.826520000000     0.0400476  
H118     H      0.476420000000     0.998730000000     0.624970000000     0.0389049  
H119     H      0.487620000000     0.119490000000     0.877210000000     0.0413682  
H120     H      0.579390000000     0.034780000000     0.673250000000     0.0343724  
H121     H      0.464790000000     0.043810000000     0.670720000000     0.0349599  
H122     H      0.579920000000     0.031890000000     0.604120000000     0.0363166  
H123     H      0.581920000000     0.072580000000     0.895130000000     0.0337423  
H124     H      0.525780000000     0.125030000000     0.764950000000     0.0453943  
H125     H      0.465520000000     0.079620000000     0.895820000000     0.0418833  
H126     H      0.519240000000     0.991590000000     0.734010000000     0.0453551  
H127     H      0.488640000000     0.040580000000     0.846590000000     0.0384792  
H128     H      0.466950000000     0.041030000000     0.601540000000     0.0366362  
H129     H      0.557830000000     0.073110000000     0.650530000000     0.0360028  
H130     H      0.492820000000     0.078250000000     0.649100000000     0.0357846  
H131     H      0.520170000000     0.010700000000     0.798030000000     0.0409066  
H132     H      0.556640000000     0.038620000000     0.845440000000     0.0400468  
H133     H      0.562950000000     0.991770000000     0.627040000000     0.0368253  
H134     H      0.523760000000     0.021540000000     0.304260000000     0.0421282  
H135     H      0.579260000000     0.003300000000     0.176540000000     0.034446   
H136     H      0.464110000000     0.001990000000     0.176590000000     0.0404173  
H137     H      0.557240000000     0.907670000000     0.376670000000     0.0349277  
H138     H      0.563970000000     0.050420000000     0.133530000000     0.0376832  
H139     H      0.464370000000     0.951670000000     0.329110000000     0.0352794  
H140     H      0.579680000000     0.947940000000     0.328430000000     0.0347347  
H141     H      0.463750000000     0.949530000000     0.396950000000     0.040576   
H142     H      0.464940000000     0.010790000000     0.107760000000     0.0330941  
H143     H      0.523460000000     0.045580000000     0.241870000000     0.0461292  
H144     H      0.579230000000     0.011030000000     0.108260000000     0.0395515  
H145     H      0.520480000000     0.910010000000     0.262670000000     0.044083   
H146     H      0.554720000000     0.968080000000     0.152090000000     0.0353352  
H147     H      0.580890000000     0.946330000000     0.396330000000     0.0397107  
H148     H      0.488440000000     0.990030000000     0.349290000000     0.0405579  
H149     H      0.558290000000     0.987820000000     0.348750000000     0.0394185  
H150     H      0.520340000000     0.934230000000     0.200070000000     0.0403665  
H151     H      0.489290000000     0.968410000000     0.151280000000     0.0422744  
H152     H      0.485160000000     0.909870000000     0.376810000000     0.0340494  
H153     H      0.721120000000     0.551450000000     0.438440000000     0.0406434  
H154     H      0.834270000000     0.613120000000     0.496790000000     0.0335743  
H155     H      0.854030000000     0.504860000000     0.455750000000     0.0395357  
H156     H      0.628770000000     0.527350000000     0.537980000000     0.0369017  
H157     H      0.887390000000     0.618130000000     0.457830000000     0.039231   
H158     H      0.698580000000     0.465480000000     0.476760000000     0.0326797  
H159     H      0.677310000000     0.571320000000     0.521700000000     0.0322284  
H160     H      0.632130000000     0.458080000000     0.463300000000     0.0319471  
H161     H      0.922710000000     0.516350000000     0.465230000000     0.0301815  
H162     H      0.784820000000     0.568250000000     0.428100000000     0.0447819  
H163     H      0.902700000000     0.622230000000     0.504280000000     0.0340307  
H164     H      0.748590000000     0.511220000000     0.545510000000     0.0440726  
H165     H      0.856040000000     0.579530000000     0.525880000000     0.0359294  
H166     H      0.611000000000     0.562830000000     0.508460000000     0.0325009  
H167     H      0.681130000000     0.500000000000     0.445850000000     0.0365412  
H168     H      0.667830000000     0.565700000000     0.473790000000     0.0362453  
H169     H      0.812400000000     0.528340000000     0.535180000000     0.0406757  
H170     H      0.867950000000     0.515960000000     0.501230000000     0.0386435  
H171     H      0.641080000000     0.464750000000     0.511140000000     0.0355474  
H172     H      0.337710000000     0.409000000000     0.482070000000     0.0408354  
H173     H      0.219660000000     0.418200000000     0.560650000000     0.0336572  
H174     H      0.208080000000     0.455270000000     0.451210000000     0.0396103  
H175     H      0.428750000000     0.496460000000     0.539770000000     0.0361844  
H176     H      0.165730000000     0.388020000000     0.536450000000     0.0397026  
H177     H      0.365920000000     0.494900000000     0.447340000000     0.032389   
H178     H      0.378030000000     0.454990000000     0.555240000000     0.0320798  
H179     H      0.433280000000     0.490290000000     0.438500000000     0.0318527  
H180     H      0.139010000000     0.460570000000     0.462480000000     0.031513   
H181     H      0.273100000000     0.392250000000     0.483870000000     0.0450673  
H182     H      0.150920000000     0.422560000000     0.568590000000     0.0330729  
H183     H      0.311680000000     0.517740000000     0.522590000000     0.0440076  
H184     H      0.200950000000     0.463630000000     0.552670000000     0.0365346  
H185     H      0.445200000000     0.449790000000     0.545310000000     0.033635   
H186     H      0.382650000000     0.448250000000     0.452700000000     0.036347   
H187     H      0.389910000000     0.423750000000     0.518760000000     0.0359864  
H188     H      0.247050000000     0.501070000000     0.524160000000     0.0407494  
H189     H      0.194120000000     0.485320000000     0.487430000000     0.0388555  
H190     H      0.421040000000     0.520570000000     0.475510000000     0.037437   
H191     H      0.699510000000     0.481650000000     0.948190000000     0.0396232  
H192     H      0.827790000000     0.579070000000     0.927810000000     0.0346113  
H193     H      0.808890000000     0.482450000000     0.991730000000     0.0377812  
H194     H      0.594950000000     0.544010000000     0.913670000000     0.0345803  
H195     H      0.880900000000     0.541610000000     0.920250000000     0.0380548  
H196     H      0.664810000000     0.581800000000     0.002590000000     0.0324544  
H197     H      0.647400000000     0.505890000000     0.915790000000     0.0337099  
H198     H      0.598980000000     0.583410000000     0.015140000000     0.0355576  
H199     H      0.874120000000     0.481600000000     0.009550000000     0.0307825  
H200     H      0.764860000000     0.476290000000     0.945610000000     0.04363    
H201     H      0.892700000000     0.580180000000     0.948310000000     0.0398193  
H202     H      0.709530000000     0.600250000000     0.959730000000     0.0424043  
H203     H      0.833380000000     0.580680000000     0.976820000000     0.0381793  
H204     H      0.581140000000     0.501560000000     0.934490000000     0.0375855  
H205     H      0.647140000000     0.536320000000     0.011240000000     0.0382025  
H206     H      0.639260000000     0.492240000000     0.962480000000     0.0357238  
H207     H      0.774590000000     0.594340000000     0.962730000000     0.0396664  
H208     H      0.823520000000     0.524400000000     0.012730000000     0.0413894  
H209     H      0.610250000000     0.601100000000     0.970790000000     0.0369966  
H210     H      0.176010000000     0.564250000000     0.993250000000     0.0411282  
H211     H      0.308360000000     0.621470000000     0.021890000000     0.0350266  
H212     H      0.298110000000     0.506470000000     0.001060000000     0.039541   
H213     H      0.099850000000     0.583510000000     0.104650000000     0.0335105  
H214     H      0.351330000000     0.609250000000     0.973940000000     0.0377881  
H215     H      0.158100000000     0.496220000000     0.061230000000     0.0344643  
H216     H      0.145190000000     0.612890000000     0.065860000000     0.0348232  
H217     H      0.090970000000     0.487490000000     0.062440000000     0.0370345  
H218     H      0.366140000000     0.501900000000     0.994080000000     0.0309022  
H219     H      0.238200000000     0.569360000000     0.970100000000     0.0453673  
H220     H      0.376240000000     0.616970000000     0.015160000000     0.0390593  
H221     H      0.217260000000     0.554130000000     0.102730000000     0.0443115  
H222     H      0.329490000000     0.588470000000     0.052020000000     0.0375528  
H223     H      0.077720000000     0.605990000000     0.067130000000     0.0368443  
H224     H      0.135820000000     0.518430000000     0.023290000000     0.0384444  
H225     H      0.127800000000     0.589410000000     0.026140000000     0.0391015  
H226     H      0.279620000000     0.558130000000     0.079350000000     0.0410193  
H227     H      0.323990000000     0.522400000000     0.039250000000     0.0405856  
H228     H      0.107860000000     0.511370000000     0.101920000000     0.0342818  
H229     H      0.002730000000     0.531970000000     0.722350000000     0.0410167  
H230     H      0.035640000000     0.475230000000     0.849160000000     0.0349706  
H231     H      0.035150000000     0.592320000000     0.845350000000     0.0394154  
H232     H      0.106890000000     0.500640000000     0.638220000000     0.0343372  
H233     H      0.992910000000     0.489830000000     0.895550000000     0.0404364  
H234     H      0.067230000000     0.594070000000     0.691890000000     0.0348439  
H235     H      0.071730000000     0.476780000000     0.689130000000     0.0343268  
H236     H      0.062150000000     0.596350000000     0.624130000000     0.0379188  
H237     H      0.030630000000     0.593590000000     0.914660000000     0.0292603  
H238     H      0.985990000000     0.531040000000     0.786920000000     0.0459941  
H239     H      0.034200000000     0.478290000000     0.918570000000     0.0361185  
H240     H      0.116070000000     0.535910000000     0.751900000000     0.0440011  
H241     H      0.071450000000     0.501810000000     0.869940000000     0.0354651  
H242     H      0.067220000000     0.477370000000     0.621430000000     0.0367156  
H243     H      0.028240000000     0.569340000000     0.674760000000     0.0384823  
H244     H      0.030970000000     0.499160000000     0.673010000000     0.0383723  
H245     H      0.099140000000     0.534870000000     0.816740000000     0.0404508  
H246     H      0.069800000000     0.567670000000     0.869340000000     0.0383507  
H247     H      0.103810000000     0.575890000000     0.639780000000     0.034868   
H248     H      0.011910000000     0.541670000000     0.213760000000     0.041138   
H249     H      0.995420000000     0.597120000000     0.342110000000     0.0352839  
H250     H      0.989280000000     0.480030000000     0.340540000000     0.039823   
H251     H      0.901380000000     0.576410000000     0.139490000000     0.0349696  
H252     H      0.038820000000     0.579060000000     0.386970000000     0.0384562  
H253     H      0.942070000000     0.482120000000     0.189590000000     0.0347079  
H254     H      0.941060000000     0.599580000000     0.187550000000     0.0345687  
H255     H      0.940050000000     0.479860000000     0.121860000000     0.0373939  
H256     H      0.995270000000     0.479630000000     0.409620000000     0.0297043  
H257     H      0.034880000000     0.540210000000     0.276410000000     0.0456523  
H258     H      0.999700000000     0.595940000000     0.410700000000     0.039426   
H259     H      0.901920000000     0.540950000000     0.254190000000     0.044117   
H260     H      0.958620000000     0.573780000000     0.364620000000     0.0395719  
H261     H      0.939970000000     0.599190000000     0.119430000000     0.039007   
H262     H      0.980440000000     0.505210000000     0.169060000000     0.039517   
H263     H      0.979920000000     0.576490000000     0.168050000000     0.038264   
H264     H      0.924980000000     0.539790000000     0.316970000000     0.0417769  
H265     H      0.956260000000     0.506470000000     0.364920000000     0.0407073  
H266     H      0.901760000000     0.503420000000     0.141290000000     0.0338169  
H267     H      0.058870000000     0.739800000000     0.478410000000     0.0413011  
H268     H      0.976210000000     0.844190000000     0.446830000000     0.0333502  
H269     H      0.042840000000     0.875950000000     0.536280000000     0.0411361  
H270     H      0.975730000000     0.638050000000     0.525850000000     0.0396328  
H271     H      0.003810000000     0.903010000000     0.430760000000     0.0384641  
H272     H      0.057220000000     0.702460000000     0.564600000000     0.0336051  
H273     H      0.971930000000     0.693870000000     0.487490000000     0.0318956  
H274     H      0.072420000000     0.635400000000     0.554060000000     0.0327337  
H275     H      0.018270000000     0.942660000000     0.528630000000     0.0390668  
H276     H      0.057680000000     0.805950000000     0.464160000000     0.0450351  
H277     H      0.956310000000     0.911020000000     0.439330000000     0.0327776  
H278     H      0.972010000000     0.755280000000     0.555750000000     0.0440778  
H279     H      0.955060000000     0.863510000000     0.486920000000     0.0384104  
H280     H      0.986130000000     0.627070000000     0.479210000000     0.0375514  
H281     H      0.070720000000     0.692050000000     0.518510000000     0.0373478  
H282     H      0.017320000000     0.686320000000     0.470360000000     0.0370044  
H283     H      0.970150000000     0.821420000000     0.540600000000     0.0412615  
H284     H      0.994630000000     0.882010000000     0.539580000000     0.0414033  
H285     H      0.026720000000     0.642000000000     0.570500000000     0.034562   
H286     H      0.007800000000     0.322930000000     0.516810000000     0.041286   
H287     H      0.073660000000     0.212450000000     0.455010000000     0.0343754  
H288     H      0.079650000000     0.211750000000     0.570790000000     0.0391723  
H289     H      0.075640000000     0.438740000000     0.479160000000     0.0466773  
H290     H      0.055290000000     0.150890000000     0.474390000000     0.0410535  
H291     H      0.063900000000     0.376300000000     0.572430000000     0.0319915  
H292     H      0.059070000000     0.377010000000     0.457190000000     0.0343864  
H293     H      0.035150000000     0.438870000000     0.573510000000     0.0345303  
H294     H      0.107190000000     0.146080000000     0.566930000000     0.0291599  
H295     H      0.012800000000     0.255310000000     0.516050000000     0.045854   
H296     H      0.099660000000     0.147040000000     0.454010000000     0.0346504  
H297     H      0.124500000000     0.332030000000     0.511710000000     0.046624   
H298     H      0.117630000000     0.207900000000     0.476300000000     0.036333   
H299     H      0.031200000000     0.439660000000     0.459030000000     0.0384233  
H300     H      0.019470000000     0.377700000000     0.551630000000     0.0356344  
H301     H      0.016540000000     0.378320000000     0.481680000000     0.035466   
H302     H      0.129460000000     0.264270000000     0.510920000000     0.0408883  
H303     H      0.120800000000     0.207250000000     0.545060000000     0.0379914  
H304     H      0.078250000000     0.438690000000     0.550300000000     0.0433011  
H305     H      0.801290000000     0.904980000000     0.515400000000     0.0403653  
H306     H      0.678100000000     0.958110000000     0.567750000000     0.0330213  
H307     H      0.688040000000     0.958570000000     0.452480000000     0.0375312  
H308     H      0.902200000000     0.989500000000     0.559970000000     0.0430285  
H309     H      0.621150000000     0.934750000000     0.541740000000     0.0378062  
H310     H      0.845420000000     0.971830000000     0.461440000000     0.033331   
H311     H      0.844770000000     0.960520000000     0.576680000000     0.0343261  
H312     H      0.912450000000     0.955130000000     0.461120000000     0.034633   
H313     H      0.622800000000     0.980480000000     0.448000000000     0.0235838  
H314     H      0.734780000000     0.900690000000     0.511790000000     0.0445712  
H315     H      0.613610000000     0.979040000000     0.562230000000     0.0322028  
H316     H      0.793690000000     0.023870000000     0.519720000000     0.0444928  
H317     H      0.672910000000     0.001880000000     0.544710000000     0.0356268  
H318     H      0.912020000000     0.942760000000     0.574190000000     0.0370685  
H319     H      0.855240000000     0.926880000000     0.480510000000     0.035738   
H320     H      0.854610000000     0.920020000000     0.549680000000     0.0356226  
H321     H      0.727370000000     0.019670000000     0.515570000000     0.0403845  
H322     H      0.678620000000     0.001740000000     0.474640000000     0.0382786  
H323     H      0.901970000000     0.997580000000     0.484770000000     0.0372221  
H324     H      0.322560000000     0.016040000000     0.452700000000     0.0411971  
H325     H      0.199440000000     0.960970000000     0.498080000000     0.0346293  
H326     H      0.209730000000     0.077470000000     0.511550000000     0.039897   
H327     H      0.419860000000     0.958560000000     0.532310000000     0.0382477  
H328     H      0.144500000000     0.988060000000     0.472800000000     0.0417667  
H329     H      0.371530000000     0.060590000000     0.522230000000     0.0324221  
H330     H      0.360380000000     0.945230000000     0.504670000000     0.0327006  
H331     H      0.437140000000     0.056370000000     0.504900000000     0.0328     
H332     H      0.141920000000     0.079530000000     0.529240000000     0.0371862  
H333     H      0.256350000000     0.022590000000     0.448000000000     0.0456117  
H334     H      0.132420000000     0.965930000000     0.515080000000     0.0420421  
H335     H      0.312930000000     0.000680000000     0.568730000000     0.0447991  
H336     H      0.190800000000     0.980710000000     0.542400000000     0.0379246  
H337     H      0.425870000000     0.942030000000     0.486340000000     0.0334962  
H338     H      0.377960000000     0.043970000000     0.476280000000     0.036762   
H339     H      0.370940000000     0.973470000000     0.465510000000     0.0361629  
H340     H      0.246740000000     0.007560000000     0.564060000000     0.042069   
H341     H      0.196670000000     0.049880000000     0.549940000000     0.0399394  
H342     H      0.425960000000     0.027530000000     0.543300000000     0.0390713  
H343     H      0.937870000000     0.746830000000     0.020040000000     0.0409797  
H344     H      0.007150000000     0.866420000000     0.051580000000     0.0358324  
H345     H      0.975540000000     0.861570000000     0.940160000000     0.0396408  
H346     H      0.029860000000     0.642440000000     0.032310000000     0.0374781  
H347     H      0.978030000000     0.925080000000     0.037400000000     0.0468673  
H348     H      0.975100000000     0.695090000000     0.950180000000     0.0328729  
H349     H      0.013970000000     0.702790000000     0.058620000000     0.0323436  
H350     H      0.958570000000     0.628750000000     0.961180000000     0.035656   
H351     H      0.997820000000     0.929140000000     0.933220000000     0.0244629  
H352     H      0.935320000000     0.814670000000     0.016680000000     0.0453317  
H353     H      0.026040000000     0.933540000000     0.042680000000     0.0451213  
H354     H      0.049050000000     0.749290000000     0.983300000000     0.0442001  
H355     H      0.041420000000     0.873280000000     0.017080000000     0.0373199  
H356     H      0.997530000000     0.636310000000     0.068720000000     0.0320876  
H357     H      0.942500000000     0.689490000000     0.986550000000     0.036212   
H358     H      0.966050000000     0.694120000000     0.052210000000     0.0362427  
H359     H      0.046670000000     0.817030000000     0.980310000000     0.040922   
H360     H      0.022250000000     0.870350000000     0.950810000000     0.0386736  
H361     H      0.006380000000     0.637730000000     0.967320000000     0.0394997  
H362     H      0.978100000000     0.326040000000     0.997640000000     0.0414435  
H363     H      0.065810000000     0.214610000000     0.013170000000     0.033653   
H364     H      0.975060000000     0.212370000000     0.085000000000     0.039082   
H365     H      0.044880000000     0.441050000000     0.039960000000     0.0374123  
H366     H      0.039360000000     0.153210000000     0.008020000000     0.042661   
H367     H      0.962680000000     0.375640000000     0.077540000000     0.0325766  
H368     H      0.055880000000     0.381280000000     0.009920000000     0.0319582  
H369     H      0.945100000000     0.439470000000     0.057520000000     0.0344408  
H370     H      0.994350000000     0.146440000000     0.104120000000     0.0342341  
H371     H      0.981880000000     0.258260000000     0.999050000000     0.0449694  
H372     H      0.081600000000     0.148770000000     0.032460000000     0.0420587  
H373     H      0.047890000000     0.332120000000     0.091750000000     0.0440507  
H374     H      0.073870000000     0.209000000000     0.061340000000     0.0368985  
H375     H      0.038430000000     0.445510000000     0.991530000000     0.0318996  
H376     H      0.955070000000     0.379290000000     0.029090000000     0.0371185  
H377     H      0.012120000000     0.383030000000     0.987720000000     0.0367984  
H378     H      0.051970000000     0.264360000000     0.092920000000     0.0408495  
H379     H      0.019790000000     0.207490000000     0.103650000000     0.0393148  
H380     H      0.988770000000     0.438280000000     0.079800000000     0.0359297  
H381     H      0.795500000000     0.011220000000     0.077470000000     0.0412827  
H382     H      0.680390000000     0.089830000000     0.050720000000     0.0332193  
H383     H      0.683510000000     0.988290000000     0.992730000000     0.0381111  
H384     H      0.902220000000     0.086040000000     0.028190000000     0.0442523  
H385     H      0.621480000000     0.059450000000     0.058760000000     0.0391376  
H386     H      0.846170000000     0.988270000000     0.001490000000     0.0348379  
H387     H      0.842140000000     0.092240000000     0.055460000000     0.0341349  
H388     H      0.911200000000     0.979910000000     0.024450000000     0.0428942  
H389     H      0.618670000000     0.999270000000     0.972740000000     0.0260718  
H390     H      0.728840000000     0.010140000000     0.075860000000     0.0448471  
H391     H      0.616260000000     0.099620000000     0.030580000000     0.0349442  
H392     H      0.797110000000     0.068640000000     0.974590000000     0.0443242  
H393     H      0.675090000000     0.090960000000     0.001870000000     0.0362595  
H394     H      0.907240000000     0.082170000000     0.076960000000     0.0436319  
H395     H      0.850860000000     0.988650000000     0.050410000000     0.0375559  
H396     H      0.848540000000     0.051360000000     0.082940000000     0.0376316  
H397     H      0.730410000000     0.067730000000     0.973080000000     0.0409146  
H398     H      0.676280000000     0.030270000000     0.967710000000     0.0383892  
H399     H      0.905050000000     0.017930000000     0.993180000000     0.0449254  
H400     H      0.314590000000     0.020470000000     0.978410000000     0.0413897  
H401     H      0.201670000000     0.028360000000     0.063180000000     0.0352214  
H402     H      0.198810000000     0.103480000000     0.973960000000     0.0392498  
H403     H      0.422410000000     0.059560000000     0.055850000000     0.0391954  
H404     H      0.142310000000     0.021400000000     0.034850000000     0.0460974  
H405     H      0.362810000000     0.103660000000     0.971400000000     0.0324768  
H406     H      0.363060000000     0.028430000000     0.059950000000     0.033642   
H407     H      0.427130000000     0.086510000000     0.957600000000     0.0389113  
H408     H      0.132770000000     0.119610000000     0.991940000000     0.0254419  
H409     H      0.247900000000     0.019460000000     0.979010000000     0.0456674  
H410     H      0.135870000000     0.044720000000     0.077740000000     0.0430649  
H411     H      0.313940000000     0.112110000000     0.053530000000     0.0447277  
H412     H      0.193890000000     0.076740000000     0.072420000000     0.0371197  
H413     H      0.427130000000     0.011170000000     0.044950000000     0.0351401  
H414     H      0.368190000000     0.055190000000     0.960820000000     0.0364229  
H415     H      0.368150000000     0.009280000000     0.014830000000     0.0365495  
H416     H      0.247260000000     0.111170000000     0.054030000000     0.040805   
H417     H      0.192130000000     0.121170000000     0.019050000000     0.0382669  
H418     H      0.421800000000     0.105220000000     0.002760000000     0.043468   
H419     H      0.099000000000     0.062740000000     0.838510000000     0.0416054  
H420     H      0.980920000000     0.095400000000     0.908660000000     0.0343737  
H421     H      0.042660000000     0.009070000000     0.957500000000     0.046111   
H422     H      0.055930000000     0.012500000000     0.716490000000     0.0222294  
H423     H      0.988250000000     0.112470000000     0.972140000000     0.0423627  
H424     H      0.104450000000     0.970790000000     0.811980000000     0.0346678  
H425     H      0.040820000000     0.056280000000     0.764550000000     0.037916   
H426     H      0.144160000000     0.970300000000     0.755000000000     0.0361303  
H427     H      0.001130000000     0.013880000000     0.013820000000     0.0283566  
H428     H      0.074920000000     0.079950000000     0.898470000000     0.0469384  
H429     H      0.941630000000     0.098530000000     0.965910000000     0.0346002  
H430     H      0.010430000000     0.986070000000     0.824070000000     0.0457003  
H431     H      0.958550000000     0.052580000000     0.920330000000     0.0362944  
H432     H      0.081680000000     0.054320000000     0.708600000000     0.0376451  
H433     H      0.126410000000     0.014300000000     0.802160000000     0.0371777  
H434     H      0.088110000000     0.065760000000     0.773590000000     0.0379823  
H435     H      0.986410000000     0.003240000000     0.884140000000     0.0413389  
H436     H      0.995040000000     0.002300000000     0.949560000000     0.0448071  
H437     H      0.097600000000     0.956540000000     0.747470000000     0.0394745  
H438     H      0.994470000000     0.066180000000     0.389660000000     0.0412536  
H439     H      0.064090000000     0.007640000000     0.281360000000     0.0365339  
H440     H      0.958260000000     0.962990000000     0.297220000000     0.0386833  
H441     H      0.059500000000     0.024750000000     0.505640000000     0.0393868  
H442     H      0.033810000000     0.010120000000     0.222670000000     0.0218481  
H443     H      0.961520000000     0.004480000000     0.451440000000     0.0373845  
H444     H      0.070950000000     0.040390000000     0.442140000000     0.0385724  
H445     H      0.956330000000     0.040300000000     0.511330000000     0.0384882  
H446     H      0.965380000000     0.928620000000     0.235860000000     0.0297871  
H447     H      0.991460000000     0.052050000000     0.324370000000     0.0466161  
H448     H      0.067820000000     0.974280000000     0.220310000000     0.0342169  
H449     H      0.037840000000     0.957480000000     0.410430000000     0.0488196  
H450     H      0.058810000000     0.958090000000     0.284290000000     0.0371284  
H451     H      0.064340000000     0.074350000000     0.502460000000     0.0494968  
H452     H      0.969620000000     0.053530000000     0.447780000000     0.0358755  
H453     H      0.035820000000     0.075250000000     0.442260000000     0.0366424  
H454     H      0.035020000000     0.943400000000     0.345160000000     0.040639   
H455     H      0.996100000000     0.932030000000     0.293470000000     0.0381548  
H456     H      0.987990000000     0.002290000000     0.512200000000     0.0437228  
N1       N      0.469950000000     0.579870000000     0.884060000000    -0.183958   
N2       N      0.483320000000     0.581360000000     0.808260000000    -0.110462   
N3       N      0.525050000000     0.534580000000     0.666770000000    -0.113111   
N4       N      0.528490000000     0.516790000000     0.592040000000    -0.181466   
N5       N      0.486310000000     0.524800000000     0.089070000000    -0.184786   
N6       N      0.489930000000     0.505140000000     0.163430000000    -0.110051   
N7       N      0.524470000000     0.463070000000     0.309620000000    -0.113443   
N8       N      0.533370000000     0.461880000000     0.385970000000    -0.181539   
N9       N      0.512870000000     0.888140000000     0.537950000000    -0.185888   
N10      N      0.502710000000     0.810990000000     0.532630000000    -0.110636   
N11      N      0.496770000000     0.667780000000     0.468840000000    -0.113844   
N12      N      0.507430000000     0.591340000000     0.460140000000    -0.183084   
N13      N      0.538980000000     0.087880000000     0.461240000000    -0.18597    
N14      N      0.551240000000     0.165000000000     0.462170000000    -0.110579   
N15      N      0.562380000000     0.312250000000     0.515660000000    -0.113748   
N16      N      0.552660000000     0.389310000000     0.519810000000    -0.182579   
N17      N      0.504850000000     0.943350000000     0.065390000000    -0.105555   
N18      N      0.498360000000     0.867000000000     0.059800000000    -0.111966   
N19      N      0.503210000000     0.717660000000     0.009460000000    -0.116199   
N20      N      0.486560000000     0.640710000000     0.009570000000    -0.229532   
N21      N      0.465320000000     0.156470000000     0.948680000000    -0.105765   
N22      N      0.464890000000     0.233090000000     0.942940000000    -0.111696   
N23      N      0.467130000000     0.387400000000     0.975250000000    -0.116764   
N24      N      0.474230000000     0.465120000000     0.962880000000    -0.227253   
N25      N      0.524210000000     0.080950000000     0.900520000000    -0.184763   
N26      N      0.523630000000     0.081810000000     0.823550000000    -0.110475   
N27      N      0.521630000000     0.034460000000     0.675560000000    -0.112708   
N28      N      0.522450000000     0.022970000000     0.600110000000    -0.18219    
N29      N      0.521930000000     0.022680000000     0.105290000000    -0.183746   
N30      N      0.521750000000     0.007360000000     0.180390000000    -0.11053    
N31      N      0.521970000000     0.948620000000     0.324410000000    -0.11367    
N32      N      0.522350000000     0.946930000000     0.401150000000    -0.182295   
N33      N      0.914750000000     0.571900000000     0.478710000000    -0.106792   
N34      N      0.840490000000     0.559580000000     0.473240000000    -0.111923   
N35      N      0.692930000000     0.519190000000     0.499830000000    -0.11621    
N36      N      0.617750000000     0.510660000000     0.483540000000    -0.229677   
N37      N      0.142660000000     0.435750000000     0.513690000000    -0.105113   
N38      N      0.217630000000     0.434250000000     0.504800000000    -0.111849   
N39      N      0.367190000000     0.475620000000     0.502080000000    -0.116602   
N40      N      0.443440000000     0.468640000000     0.490950000000    -0.229765   
N41      N      0.889020000000     0.527250000000     0.975410000000    -0.18574    
N42      N      0.814780000000     0.528860000000     0.955440000000    -0.109244   
N43      N      0.659680000000     0.547210000000     0.955330000000    -0.112274   
N44      N      0.584530000000     0.548830000000     0.969950000000    -0.183338   
N45      N      0.374910000000     0.560670000000     0.995700000000    -0.185606   
N46      N      0.299450000000     0.565140000000     0.007680000000    -0.110294   
N47      N      0.155930000000     0.555020000000     0.064530000000    -0.113746   
N48      N      0.080030000000     0.546200000000     0.065020000000    -0.183772   
N49      N      0.019330000000     0.535690000000     0.919640000000    -0.185164   
N50      N      0.029840000000     0.533510000000     0.843970000000    -0.110122   
N51      N      0.071700000000     0.535400000000     0.694580000000    -0.11351    
N52      N      0.066840000000     0.537090000000     0.617870000000    -0.181964   
N53      N      0.008610000000     0.537150000000     0.413420000000    -0.185412   
N54      N      0.996580000000     0.538520000000     0.337540000000    -0.10994    
N55      N      0.940460000000     0.540930000000     0.192900000000    -0.113699   
N56      N      0.939430000000     0.539490000000     0.116260000000    -0.182642   
N57      N      0.991830000000     0.929860000000     0.479970000000    -0.105198   
N58      N      0.012770000000     0.856820000000     0.490170000000    -0.11223    
N59      N      0.013990000000     0.703420000000     0.526130000000    -0.116124   
N60      N      0.031530000000     0.627600000000     0.514560000000    -0.229274   
N61      N      0.098360000000     0.142600000000     0.510880000000    -0.107578   
N62      N      0.072940000000     0.214900000000     0.513020000000    -0.11205    
N63      N      0.064200000000     0.372460000000     0.514660000000    -0.114757   
N64      N      0.031760000000     0.444390000000     0.516460000000    -0.224498   
N65      N      0.613530000000     0.979500000000     0.504560000000    -0.23569    
N66      N      0.687120000000     0.956030000000     0.510540000000    -0.112874   
N67      N      0.841360000000     0.968800000000     0.519300000000    -0.11501    
N68      N      0.915050000000     0.952510000000     0.518070000000    -0.100565   
N69      N      0.134040000000     0.023820000000     0.516540000000    -0.102379   
N70      N      0.207850000000     0.019240000000     0.501470000000    -0.111917   
N71      N      0.361370000000     0.003100000000     0.515130000000    -0.116559   
N72      N      0.435570000000     0.999090000000     0.493450000000    -0.22922    
N73      N      0.006730000000     0.934920000000     0.989060000000    -0.108764   
N74      N      0.988160000000     0.860750000000     0.996990000000    -0.111638   
N75      N      0.996550000000     0.703290000000     0.003390000000    -0.11682    
N76      N      0.976260000000     0.628330000000     0.015880000000    -0.228505   
N77      N      0.034580000000     0.143580000000     0.064150000000    -0.0990041  
N78      N      0.018140000000     0.216360000000     0.046130000000    -0.112193   
N79      N      0.010740000000     0.374000000000     0.045360000000    -0.116533   
N80      N      0.990020000000     0.446260000000     0.022470000000    -0.229298   
N81      N      0.611930000000     0.048720000000     0.002420000000    -0.231605   
N82      N      0.685450000000     0.037530000000     0.024700000000    -0.113274   
N83      N      0.840510000000     0.041460000000     0.025970000000    -0.114918   
N84      N      0.912290000000     0.032670000000     0.047840000000    -0.0929293  
N85      N      0.130720000000     0.078090000000     0.031390000000    -0.103013   
N86      N      0.203390000000     0.063250000000     0.016380000000    -0.111587   
N87      N      0.358460000000     0.067650000000     0.017010000000    -0.116465   
N88      N      0.431430000000     0.047240000000     0.999980000000    -0.226962   
N89      N      0.974490000000     0.060690000000     0.993900000000    -0.106642   
N90      N      0.015750000000     0.054080000000     0.930990000000    -0.111496   
N91      N      0.069250000000     0.012590000000     0.791170000000    -0.114632   
N92      N      0.111430000000     0.009310000000     0.728530000000    -0.106612   
N93      N      0.013960000000     0.955740000000     0.223600000000    -0.112624   
N94      N      0.009930000000     0.989410000000     0.291450000000    -0.111859   
N95      N      0.016980000000     0.019200000000     0.443730000000    -0.113374   
N96      N      0.011330000000     0.055010000000     0.510380000000    -0.114651   
O1       O      0.983130000000     0.991380000000     0.081890000000    -0.371699   
O2       O      0.059820000000     0.069520000000     0.101290000000    -0.36552    
O3       O      0.061050000000     0.993610000000     0.078710000000    -0.375632   
O4       O      0.981960000000     0.067230000000     0.104300000000    -0.368247   
O5       O      0.984840000000     0.049490000000     0.162780000000    -0.370541   
O6       O      0.063850000000     0.975720000000     0.137170000000    -0.372191   
O7       O      0.062670000000     0.051670000000     0.159740000000    -0.375017   
O8       O      0.986030000000     0.973490000000     0.140300000000    -0.367636   
O9       O      0.072640000000     0.979280000000     0.567490000000    -0.375048   
O10      O      0.007360000000     0.064450000000     0.597240000000    -0.368878   
O11      O      0.082330000000     0.057360000000     0.577150000000    -0.36977    
O12      O      0.997620000000     0.986390000000     0.587600000000    -0.376377   
O13      O      0.012430000000     0.976990000000     0.646150000000    -0.372965   
O14      O      0.097280000000     0.047840000000     0.635610000000    -0.371324   
O15      O      0.022270000000     0.055120000000     0.655770000000    -0.37535    
O16      O      0.087400000000     0.969780000000     0.626030000000    -0.370713   
O17      O      0.965660000000     0.508170000000     0.069200000000    -0.485576   
O18      O      0.003530000000     0.506480000000     0.972640000000    -0.485309   
O19      O      0.033510000000     0.511120000000     0.042680000000    -0.491511   
O20      O      0.937680000000     0.502500000000     0.004870000000    -0.481243   
O21      O      0.937510000000     0.562320000000     0.992950000000    -0.481744   
O22      O      0.029030000000     0.571840000000     0.040350000000    -0.490031   
O23      O      0.005010000000     0.567380000000     0.971470000000    -0.484963   
O24      O      0.959100000000     0.568580000000     0.064590000000    -0.484367   
O25      O      0.018430000000     0.506270000000     0.466900000000    -0.484037   
O26      O      0.049230000000     0.506950000000     0.566090000000    -0.48095    
O27      O      0.983410000000     0.504450000000     0.532770000000    -0.457405   
O28      O      0.082630000000     0.505340000000     0.502200000000    -0.451224   
O29      O      0.082590000000     0.566860000000     0.504020000000    -0.449611   
O30      O      0.982890000000     0.565870000000     0.532920000000    -0.458039   
O31      O      0.048000000000     0.567910000000     0.566900000000    -0.482467   
O32      O      0.020010000000     0.567030000000     0.466990000000    -0.486402   
O33      O      0.492510000000     0.034810000000     0.051770000000    -0.48154    
O34      O      0.493580000000     0.064660000000     0.952320000000    -0.47944    
O35      O      0.489940000000     0.998080000000     0.987110000000    -0.458733   
O36      O      0.489670000000     0.099210000000     0.017110000000    -0.453916   
O37      O      0.550030000000     0.099320000000     0.016250000000    -0.454784   
O38      O      0.550150000000     0.997960000000     0.987050000000    -0.456983   
O39      O      0.553500000000     0.063940000000     0.952770000000    -0.481428   
O40      O      0.552380000000     0.034850000000     0.052410000000    -0.48594    
O41      O      0.493320000000     0.970650000000     0.450860000000    -0.486804   
O42      O      0.492630000000     0.009420000000     0.547260000000    -0.488501   
O43      O      0.502520000000     0.040390000000     0.480180000000    -0.487795   
O44      O      0.489830000000     0.943360000000     0.518440000000    -0.484451   
O45      O      0.549220000000     0.935460000000     0.518590000000    -0.487047   
O46      O      0.561860000000     0.032720000000     0.480990000000    -0.488383   
O47      O      0.552200000000     0.003870000000     0.548840000000    -0.487696   
O48      O      0.552930000000     0.965630000000     0.452100000000    -0.482415   
O49      O      0.465380000000     0.537690000000     0.930010000000    -0.475175   
O50      O      0.481020000000     0.509970000000     0.028710000000    -0.487124   
O51      O      0.426060000000     0.526760000000     0.985300000000    -0.482801   
O52      O      0.527540000000     0.524160000000     0.966870000000    -0.489454   
O53      O      0.535060000000     0.578500000000     0.992800000000    -0.486053   
O54      O      0.431890000000     0.585980000000     0.997870000000    -0.484556   
O55      O      0.487580000000     0.568520000000     0.044100000000    -0.478842   
O56      O      0.484290000000     0.594110000000     0.943100000000    -0.476849   
O57      O      0.489710000000     0.533270000000     0.477230000000    -0.489503   
O58      O      0.512140000000     0.434690000000     0.505710000000    -0.48606    
O59      O      0.501040000000     0.496090000000     0.540210000000    -0.484702   
O60      O      0.503560000000     0.467420000000     0.440330000000    -0.484757   
O61      O      0.560970000000     0.484290000000     0.437130000000    -0.480733   
O62      O      0.558650000000     0.512620000000     0.537610000000    -0.480676   
O63      O      0.570630000000     0.446950000000     0.501400000000    -0.485465   
O64      O      0.548150000000     0.545710000000     0.472930000000    -0.485475   
S1       S      0.463000000000     0.645950000000     0.862090000000    -0.0212348  
S2       S      0.429190000000     0.489240000000     0.104790000000    -0.0185383  
S3       S      0.470080000000     0.867940000000     0.588370000000    -0.0220003  
S4       S      0.499150000000     0.117710000000     0.413140000000    -0.0219325  
S5       S      0.442660000000     0.926740000000     0.088000000000    -0.0267276  
S6       S      0.422920000000     0.172210000000     0.897480000000    -0.0267328  
S7       S      0.568460000000     0.129900000000     0.878670000000    -0.0234526  
S8       S      0.475480000000     0.064070000000     0.135820000000    -0.0169837  
S9       S      0.902870000000     0.546480000000     0.416310000000    -0.0253445  
S10      S      0.154900000000     0.401620000000     0.455530000000    -0.0219609  
S11      S      0.870040000000     0.464350000000     0.951610000000    -0.0154707  
S12      S      0.342320000000     0.527370000000     0.944550000000    -0.0186907  
S13      S      0.976830000000     0.581860000000     0.889710000000    -0.0181467  
S14      S      0.049030000000     0.489060000000     0.383780000000    -0.0189803  
S15      S      0.059660000000     0.930180000000     0.486320000000    -0.0135201  
S16      S      0.047650000000     0.144270000000     0.556510000000     0.00293206 
S17      S      0.623250000000     0.921570000000     0.465820000000    -0.0198506  
S18      S      0.147910000000     0.072000000000     0.469390000000    -0.0194564  
S19      S      0.944630000000     0.927480000000     0.961920000000    -0.0273456  
S20      S      0.968010000000     0.145530000000     0.049610000000    -0.0112902  
S21      S      0.619120000000     0.984830000000     0.031720000000    -0.0179682  
S22      S      0.134840000000     0.064830000000     0.964450000000    -0.0180932  
S23      S      0.040030000000     0.060990000000     0.012440000000    -0.0254366  
S24      S      0.953790000000     0.988280000000     0.226590000000    -0.00382339 


