data_structure

_audit_creation_method RASPA-1.0
_audit_creation_date 2023-6-5
_audit_author_name 'Poobodin Mano'

_cell_length_a    63.0163
_cell_length_b    62.724
_cell_length_c    37.7346
_cell_angle_alpha 89.9344
_cell_angle_beta  90.0652
_cell_angle_gamma 119.936
_cell_volume      129252

_symmetry_cell_setting          triclinic
_symmetry_space_group_name_Hall 'P 1'
_symmetry_space_group_name_H-M  'P 1'
_symmetry_Int_Tables_number     1

_symmetry_equiv_pos_as_xyz 'x,y,z'

loop_
_atom_site_label
_atom_site_type_symbol
_atom_site_fract_x
_atom_site_fract_y
_atom_site_fract_z
_atom_site_charge
C1       C      0.893700000000     0.710230000000     0.649670000000     0.398639   
C2       C      0.799050000000     0.662920000000     0.614280000000     0.400678   
C3       C      0.834020000000     0.686090000000     0.699550000000     0.400807   
C4       C      0.858760000000     0.687270000000     0.564130000000     0.399121   
C5       C      0.224540000000     0.893910000000     0.828060000000     0.401608   
C6       C      0.130270000000     0.842260000000     0.790970000000     0.401736   
C7       C      0.166040000000     0.857790000000     0.877830000000     0.398004   
C8       C      0.189620000000     0.878710000000     0.741620000000     0.404315   
C9       C      0.463420000000     0.007640000000     0.964840000000     0.396941   
C10      C      0.554750000000     0.049500000000     0.014730000000     0.402029   
C11      C      0.525450000000     0.030290000000     0.923480000000     0.404303   
C12      C      0.492870000000     0.026640000000     0.054830000000     0.401375   
C13      C      0.221150000000     0.347940000000     0.337850000000     0.396391   
C14      C      0.130930000000     0.305960000000     0.283650000000     0.401823   
C15      C      0.158360000000     0.318370000000     0.375920000000     0.403696   
C16      C      0.194560000000     0.335620000000     0.244950000000     0.401947   
C17      C      0.791220000000     0.155790000000     0.153090000000     0.399719   
C18      C      0.888480000000     0.202030000000     0.164600000000     0.397138   
C19      C      0.843610000000     0.188100000000     0.088910000000     0.402598   
C20      C      0.836930000000     0.170730000000     0.227790000000     0.399418   
C21      C      0.553340000000     0.528680000000     0.507420000000     0.398033   
C22      C      0.458510000000     0.470580000000     0.478190000000     0.399979   
C23      C      0.496960000000     0.490100000000     0.561530000000     0.400181   
C24      C      0.514540000000     0.508740000000     0.423370000000     0.397392   
C25      C      0.141020000000     0.355630000000     0.819410000000     0.401785   
C26      C      0.182890000000     0.300320000000     0.805980000000     0.401639   
C27      C      0.169710000000     0.330160000000     0.882290000000     0.399104   
C28      C      0.154660000000     0.325500000000     0.742990000000     0.39903    
C29      C      0.301100000000     0.182780000000     0.667180000000     0.397335   
C30      C      0.356470000000     0.150360000000     0.608120000000     0.399394   
C31      C      0.343660000000     0.163220000000     0.702280000000     0.404136   
C32      C      0.313230000000     0.170210000000     0.573150000000     0.404225   
C33      C      0.027790000000     0.487370000000     0.929440000000     0.398834   
C34      C      0.983400000000     0.536040000000     0.973070000000     0.401355   
C35      C      0.003690000000     0.524310000000     0.884950000000     0.400395   
C36      C      0.007420000000     0.498620000000     0.018500000000     0.399725   
C37      C      0.664370000000     0.882800000000     0.332710000000     0.400717   
C38      C      0.707290000000     0.833160000000     0.286790000000     0.398843   
C39      C      0.689640000000     0.846900000000     0.376650000000     0.403183   
C40      C      0.682100000000     0.869270000000     0.242750000000     0.401419   
C41      C      0.823570000000     0.707970000000     0.156990000000     0.402066   
C42      C      0.867160000000     0.660050000000     0.106800000000     0.398232   
C43      C      0.858180000000     0.679340000000     0.198120000000     0.401256   
C44      C      0.832760000000     0.688570000000     0.066630000000     0.399276   
C45      C      0.554940000000     0.009240000000     0.475870000000     0.399337   
C46      C      0.501180000000     0.052250000000     0.495350000000     0.401563   
C47      C      0.520760000000     0.030610000000     0.416190000000     0.398808   
C48      C      0.534800000000     0.031380000000     0.555480000000     0.399089   
C49      C      0.299000000000     0.112100000000     0.149050000000     0.399593   
C50      C      0.352140000000     0.208750000000     0.126420000000     0.401644   
C51      C      0.325070000000     0.168860000000     0.206660000000     0.398676   
C52      C      0.326160000000     0.151970000000     0.068420000000     0.399124   
C53      C      0.487110000000     0.455410000000     0.022820000000     0.399109   
C54      C      0.534900000000     0.544120000000     0.962710000000     0.40201    
C55      C      0.525070000000     0.520120000000     0.056940000000     0.403611   
C56      C      0.497010000000     0.479900000000     0.928570000000     0.398316   
C57      C      0.186500000000     0.878950000000     0.298890000000     0.403875   
C58      C      0.140470000000     0.782100000000     0.321830000000     0.401204   
C59      C      0.162550000000     0.822620000000     0.241270000000     0.400977   
C60      C      0.164320000000     0.837810000000     0.380410000000     0.399382   
C61      C      0.014070000000     0.536590000000     0.433060000000     0.397513   
C62      C      0.958460000000     0.442480000000     0.469690000000     0.402624   
C63      C      0.978900000000     0.478030000000     0.383470000000     0.403134   
C64      C      0.994390000000     0.502200000000     0.520230000000     0.398422   
C65      C      0.863970000000     0.213390000000     0.632760000000     0.399243   
C66      C      0.830080000000     0.122010000000     0.680350000000     0.401846   
C67      C      0.847000000000     0.152350000000     0.590440000000     0.402706   
C68      C      0.847460000000     0.182900000000     0.722100000000     0.399656   
C69      C      0.657440000000     0.782330000000     0.823660000000     0.399715   
C70      C      0.709780000000     0.878890000000     0.800380000000     0.399501   
C71      C      0.685210000000     0.839380000000     0.881310000000     0.39862    
C72      C      0.681760000000     0.822100000000     0.742600000000     0.399674   
C73      C      0.784850000000     0.059730000000     0.714990000000    -0.0315655  
C74      C      0.762440000000     0.939140000000     0.774270000000    -0.0299728  
C75      C      0.711140000000     0.918720000000     0.793870000000    -0.00702113 
C76      C      0.750300000000     0.916650000000     0.798580000000    -0.0071378  
C77      C      0.773350000000     0.999340000000     0.782390000000    -0.0545218  
C78      C      0.779800000000     0.003110000000     0.708880000000    -0.0540317  
C79      C      0.764260000000     0.977930000000     0.761970000000     0.0613854  
C80      C      0.725010000000     0.941050000000     0.769670000000    -0.0298964  
C81      C      0.788730000000     0.024530000000     0.729280000000     0.0603788  
C82      C      0.824960000000     0.064770000000     0.723680000000    -0.0584822  
C83      C      0.785410000000     0.022470000000     0.766310000000    -0.0561126  
C84      C      0.837430000000     0.088160000000     0.700640000000     0.0946119  
C85      C      0.794250000000     0.081510000000     0.689780000000    -0.00607077 
C86      C      0.767590000000     0.979950000000     0.724960000000    -0.0567846  
C87      C      0.934890000000     0.374840000000     0.482490000000    -0.031774   
C88      C      0.907950000000     0.278800000000     0.608910000000    -0.0300598  
C89      C      0.855690000000     0.243600000000     0.603730000000    -0.00585455 
C90      C      0.896320000000     0.256990000000     0.634630000000    -0.0074714  
C91      C      0.885220000000     0.319870000000     0.574720000000    -0.0546637  
C92      C      0.931350000000     0.342550000000     0.543410000000    -0.0513832  
C93      C      0.899590000000     0.308620000000     0.577620000000     0.0612767  
C94      C      0.869620000000     0.265050000000     0.578160000000    -0.0304684  
C95      C      0.916180000000     0.352860000000     0.537830000000     0.0576674  
C96      C      0.908800000000     0.385920000000     0.514830000000    -0.0590721  
C97      C      0.893080000000     0.341320000000     0.554880000000    -0.0524156  
C98      C      0.918440000000     0.408840000000     0.490100000000     0.0936706  
C99      C      0.953220000000     0.401080000000     0.471330000000    -0.00232938 
C100     C      0.922910000000     0.320340000000     0.561580000000    -0.0561355  
C101     C      0.130050000000     0.718210000000     0.338210000000    -0.031655   
C102     C      0.032080000000     0.601320000000     0.408490000000    -0.029986   
C103     C      0.053890000000     0.569800000000     0.411910000000    -0.00690063 
C104     C      0.015210000000     0.573470000000     0.408930000000    -0.00656419 
C105     C      0.074670000000     0.640520000000     0.347400000000    -0.0545984  
C106     C      0.090630000000     0.676310000000     0.400520000000    -0.0538029  
C107     C      0.069730000000     0.633270000000     0.382930000000     0.0613264  
C108     C      0.068600000000     0.597960000000     0.411280000000    -0.0300383  
C109     C      0.095020000000     0.683570000000     0.364910000000     0.0602811  
C110     C      0.090640000000     0.715280000000     0.335380000000    -0.0582721  
C111     C      0.087280000000     0.665430000000     0.338350000000    -0.0560968  
C112     C      0.101460000000     0.743240000000     0.332010000000     0.0947958  
C113     C      0.143980000000     0.746250000000     0.337510000000    -0.00509691 
C114     C      0.078170000000     0.651370000000     0.409590000000    -0.0568162  
C115     C      0.545580000000     0.602680000000     0.919840000000    -0.0315902  
C116     C      0.644060000000     0.720990000000     0.854370000000    -0.0299684  
C117     C      0.617060000000     0.744460000000     0.828520000000    -0.0070638  
C118     C      0.656270000000     0.742480000000     0.828390000000    -0.00700686 
C119     C      0.593030000000     0.662440000000     0.849010000000    -0.054639   
C120     C      0.595240000000     0.661450000000     0.922990000000    -0.0538916  
C121     C      0.605490000000     0.684570000000     0.867790000000     0.0614572  
C122     C      0.606440000000     0.722840000000     0.854560000000    -0.030082   
C123     C      0.583100000000     0.639290000000     0.904170000000     0.0603927  
C124     C      0.582630000000     0.600920000000     0.913320000000    -0.0584205  
C125     C      0.581810000000     0.639960000000     0.866930000000    -0.0559893  
C126     C      0.573700000000     0.578570000000     0.938070000000     0.0947763  
C127     C      0.534750000000     0.581740000000     0.946670000000    -0.00567385 
C128     C      0.606290000000     0.683960000000     0.905060000000    -0.0567945  
C129     C      0.192540000000     0.936420000000     0.263650000000    -0.0318144  
C130     C      0.285620000000     0.052370000000     0.184750000000    -0.029869   
C131     C      0.258400000000     0.074330000000     0.154440000000    -0.007083   
C132     C      0.297320000000     0.072070000000     0.156070000000    -0.00718516 
C133     C      0.236620000000     0.993720000000     0.187140000000    -0.0542506  
C134     C      0.238250000000     0.998120000000     0.260980000000    -0.0539603  
C135     C      0.247490000000     0.017120000000     0.202560000000     0.061206   
C136     C      0.247980000000     0.054300000000     0.183050000000    -0.0302191  
C137     C      0.227720000000     0.974720000000     0.245560000000     0.0605944  
C138     C      0.232980000000     0.940750000000     0.263840000000    -0.0590065  
C139     C      0.226790000000     0.972650000000     0.208330000000    -0.0561848  
C140     C      0.225390000000     0.920180000000     0.291500000000     0.0948501  
C141     C      0.183520000000     0.916380000000     0.291970000000    -0.00684208 
C142     C      0.248070000000     0.019200000000     0.239760000000    -0.0567622  
C143     C      0.406810000000     0.272260000000     0.114650000000    -0.0316366  
C144     C      0.435560000000     0.395310000000     0.052840000000    -0.0300931  
C145     C      0.488880000000     0.420520000000     0.049860000000    -0.00690083 
C146     C      0.450120000000     0.423460000000     0.053220000000    -0.00700448 
C147     C      0.425770000000     0.342370000000     0.047350000000    -0.0567484  
C148     C      0.418440000000     0.325360000000     0.117320000000    -0.0561646  
C149     C      0.435810000000     0.359300000000     0.075460000000     0.0612219  
C150     C      0.472550000000     0.392550000000     0.049420000000    -0.0300837  
C151     C      0.408350000000     0.308390000000     0.089230000000     0.06036    
C152     C      0.370790000000     0.276150000000     0.114110000000    -0.058522   
C153     C      0.412160000000     0.317140000000     0.054310000000    -0.0538327  
C154     C      0.353250000000     0.248220000000     0.114490000000     0.0952485  
C155     C      0.392250000000     0.244200000000     0.113610000000    -0.00552163 
C156     C      0.432060000000     0.350570000000     0.110350000000    -0.0545299  
C157     C      0.673890000000     0.810290000000     0.459780000000    -0.0316637  
C158     C      0.672610000000     0.828600000000     0.647590000000    -0.0304773  
C159     C      0.693530000000     0.805520000000     0.691580000000    -0.00748198 
C160     C      0.662530000000     0.819870000000     0.684840000000    -0.00612441 
C161     C      0.664030000000     0.805170000000     0.572540000000    -0.0540517  
C162     C      0.710420000000     0.833060000000     0.542600000000    -0.053724   
C163     C      0.684630000000     0.815620000000     0.594770000000     0.0606476  
C164     C      0.701450000000     0.813900000000     0.653330000000    -0.0301796  
C165     C      0.689770000000     0.823010000000     0.520420000000     0.0600353  
C166     C      0.697610000000     0.853300000000     0.475210000000    -0.0586918  
C167     C      0.666400000000     0.809270000000     0.536010000000    -0.0554989  
C168     C      0.707090000000     0.860900000000     0.437190000000     0.0950554  
C169     C      0.681770000000     0.815410000000     0.421020000000    -0.00675168 
C170     C      0.707960000000     0.829990000000     0.579340000000    -0.0557083  
C171     C      0.701860000000     0.895270000000     0.150720000000    -0.031638   
C172     C      0.665370000000     0.844090000000     0.972880000000    -0.0299685  
C173     C      0.710070000000     0.854420000000     0.935560000000    -0.00734609 
C174     C      0.666430000000     0.847430000000     0.932720000000    -0.00639903 
C175     C      0.688630000000     0.883010000000     0.038820000000    -0.0542503  
C176     C      0.686240000000     0.847550000000     0.086060000000    -0.0535045  
C177     C      0.689120000000     0.862390000000     0.025650000000     0.0612824  
C178     C      0.706820000000     0.851540000000     0.975820000000    -0.0298235  
C179     C      0.686240000000     0.868420000000     0.099260000000     0.060615   
C180     C      0.659560000000     0.863810000000     0.148050000000    -0.0576108  
C181     C      0.686820000000     0.885890000000     0.075190000000    -0.0561308  
C182     C      0.657040000000     0.860610000000     0.188630000000     0.0935213  
C183     C      0.702960000000     0.894810000000     0.191210000000    -0.0038152  
C184     C      0.687280000000     0.844290000000     0.049580000000    -0.0564027  
C185     C      0.773480000000     0.719760000000     0.186720000000    -0.03157    
C186     C      0.755970000000     0.818300000000     0.261490000000    -0.029801   
C187     C      0.702660000000     0.795010000000     0.261340000000    -0.00665933 
C188     C      0.744330000000     0.834610000000     0.263130000000    -0.00707157 
C189     C      0.753380000000     0.776790000000     0.197140000000    -0.0544442  
C190     C      0.773550000000     0.760300000000     0.249040000000    -0.0538522  
C191     C      0.751750000000     0.781790000000     0.232850000000     0.0615211  
C192     C      0.716640000000     0.780920000000     0.260290000000    -0.0299355  
C193     C      0.775650000000     0.755760000000     0.213230000000     0.0604559  
C194     C      0.810310000000     0.759030000000     0.181460000000    -0.058536   
C195     C      0.765090000000     0.763790000000     0.187300000000    -0.0559439  
C196     C      0.826580000000     0.747460000000     0.176270000000     0.0950875  
C197     C      0.787210000000     0.705530000000     0.184090000000    -0.00604158 
C198     C      0.761560000000     0.773070000000     0.258910000000    -0.056753   
C199     C      0.659220000000     0.934830000000     0.371150000000    -0.031565   
C200     C      0.567820000000     0.960800000000     0.448020000000    -0.0299979  
C201     C      0.595530000000     0.012780000000     0.466730000000    -0.00730415 
C202     C      0.557620000000     0.971220000000     0.475450000000    -0.0069657  
C203     C      0.617680000000     0.952770000000     0.445090000000    -0.0546233  
C204     C      0.611710000000     0.948370000000     0.371500000000    -0.0538967  
C205     C      0.605190000000     0.963040000000     0.427880000000     0.0613034  
C206     C      0.604430000000     0.000710000000     0.439780000000    -0.0301568  
C207     C      0.624020000000     0.937910000000     0.388760000000     0.0601755  
C208     C      0.619810000000     0.898150000000     0.377360000000    -0.0584585  
C209     C      0.627020000000     0.940280000000     0.425830000000    -0.0560114  
C210     C      0.626490000000     0.883430000000     0.351570000000     0.0942986  
C211     C      0.667860000000     0.922850000000     0.343980000000    -0.00687438 
C212     C      0.602310000000     0.960820000000     0.390800000000    -0.0568234  
C213     C      0.025390000000     0.551840000000     0.793790000000    -0.031712   
C214     C      0.981710000000     0.510420000000     0.613930000000    -0.0302825  
C215     C      0.022950000000     0.516790000000     0.570990000000    -0.00732769 
C216     C      0.981610000000     0.514850000000     0.574120000000    -0.00644823 
C217     C      0.010570000000     0.545880000000     0.681530000000    -0.054316   
C218     C      0.004890000000     0.506680000000     0.723570000000    -0.0534918  
C219     C      0.007970000000     0.524640000000     0.665230000000     0.0611359  
C220     C      0.021310000000     0.513000000000     0.611230000000    -0.0301188  
C221     C      0.007790000000     0.528040000000     0.739870000000     0.060501   
C222     C      0.982320000000     0.523150000000     0.790290000000    -0.0578648  
C223     C      0.010110000000     0.547500000000     0.718420000000    -0.0560523  
C224     C      0.979640000000     0.517450000000     0.830240000000     0.0936942  
C225     C      0.026450000000     0.549170000000     0.834000000000    -0.00407267 
C226     C      0.004590000000     0.504760000000     0.686630000000    -0.0562594  
C227     C      0.993370000000     0.462780000000     0.296420000000    -0.0320231  
C228     C      0.013650000000     0.506730000000     0.114540000000    -0.0304836  
C229     C      0.994050000000     0.466110000000     0.064250000000    -0.00732213 
C230     C      0.025830000000     0.510070000000     0.078260000000    -0.00642839 
C231     C      0.014420000000     0.483920000000     0.188490000000    -0.0537817  
C232     C      0.966190000000     0.465630000000     0.210820000000    -0.0539019  
C233     C      0.996020000000     0.477710000000     0.163020000000     0.0603935  
C234     C      0.983430000000     0.464250000000     0.101280000000    -0.0301647  
C235     C      0.984540000000     0.471550000000     0.236270000000     0.0601117  
C236     C      0.975390000000     0.488720000000     0.287480000000    -0.0589871  
C237     C      0.008970000000     0.481490000000     0.224660000000    -0.0555076  
C238     C      0.963050000000     0.482110000000     0.324140000000     0.0950733  
C239     C      0.981860000000     0.455000000000     0.333110000000    -0.00596986 
C240     C      0.971830000000     0.469160000000     0.174710000000    -0.0555289  
C241     C      0.933190000000     0.548960000000     0.998570000000    -0.0317712  
C242     C      0.915770000000     0.647090000000     0.074510000000    -0.0299928  
C243     C      0.862690000000     0.621420000000     0.083560000000    -0.007003   
C244     C      0.902850000000     0.662200000000     0.076900000000    -0.00694939 
C245     C      0.913220000000     0.605270000000     0.012790000000    -0.0546058  
C246     C      0.934370000000     0.589150000000     0.063700000000    -0.0540024  
C247     C      0.911730000000     0.609970000000     0.048680000000     0.0613375  
C248     C      0.877820000000     0.608590000000     0.080860000000    -0.0298958  
C249     C      0.935880000000     0.584450000000     0.027770000000     0.060318   
C250     C      0.970850000000     0.587640000000     0.997090000000    -0.0583727  
C251     C      0.925210000000     0.592670000000     0.002290000000    -0.0560942  
C252     C      0.986640000000     0.575510000000     0.992180000000     0.0947327  
C253     C      0.946090000000     0.533960000000     0.995410000000    -0.00599288 
C254     C      0.922420000000     0.601820000000     0.074190000000    -0.0568305  
C255     C      0.335550000000     0.133850000000     0.788020000000    -0.0318643  
C256     C      0.321230000000     0.158770000000     0.972070000000    -0.0305265  
C257     C      0.339760000000     0.135250000000     0.019820000000    -0.00748252 
C258     C      0.309410000000     0.149920000000     0.008560000000    -0.00634906 
C259     C      0.317070000000     0.134500000000     0.897270000000    -0.0537992  
C260     C      0.364920000000     0.163340000000     0.872600000000    -0.0539804  
C261     C      0.336210000000     0.146130000000     0.921830000000     0.0606137  
C262     C      0.349790000000     0.144130000000     0.982520000000    -0.0299823  
C263     C      0.345810000000     0.151430000000     0.848050000000     0.0604331  
C264     C      0.353300000000     0.177840000000     0.797330000000    -0.0592322  
C265     C      0.321620000000     0.137520000000     0.860850000000    -0.0557142  
C266     C      0.364300000000     0.183640000000     0.759780000000     0.0950466  
C267     C      0.345850000000     0.137940000000     0.750450000000    -0.00608822 
C268     C      0.360220000000     0.161220000000     0.909020000000    -0.0555248  
C269     C      0.302340000000     0.152260000000     0.481420000000    -0.0325738  
C270     C      0.302480000000     0.178170000000     0.292760000000    -0.0300638  
C271     C      0.342050000000     0.171150000000     0.266380000000    -0.00658507 
C272     C      0.311900000000     0.186120000000     0.254980000000    -0.00724807 
C273     C      0.336480000000     0.190420000000     0.376900000000    -0.0539487  
C274     C      0.289120000000     0.161890000000     0.403510000000    -0.0539466  
C275     C      0.317010000000     0.177600000000     0.353200000000     0.0606198  
C276     C      0.330800000000     0.163270000000     0.303370000000    -0.0303303  
C277     C      0.308510000000     0.175250000000     0.427130000000     0.0604111  
C278     C      0.318760000000     0.196600000000     0.484730000000    -0.0604045  
C279     C      0.332470000000     0.188880000000     0.413460000000    -0.0555766  
C280     C      0.308700000000     0.194320000000     0.522420000000     0.0949357  
C281     C      0.291580000000     0.148740000000     0.518820000000    -0.00586427 
C282     C      0.293290000000     0.162560000000     0.367030000000    -0.0558574  
C283     C      0.446380000000     0.059870000000     0.512260000000    -0.0316325  
C284     C      0.411720000000     0.149110000000     0.575730000000    -0.030148   
C285     C      0.359040000000     0.115830000000     0.581700000000    -0.00686996 
C286     C      0.394580000000     0.159820000000     0.576910000000    -0.00700402 
C287     C      0.417810000000     0.109820000000     0.516450000000    -0.0545156  
C288     C      0.443020000000     0.100840000000     0.570100000000    -0.0537864  
C289     C      0.415320000000     0.115260000000     0.551650000000     0.0613549  
C290     C      0.377890000000     0.107320000000     0.580590000000    -0.0299889  
C291     C      0.445400000000     0.095260000000     0.534910000000     0.0605114  
C292     C      0.481090000000     0.100200000000     0.503900000000    -0.0583124  
C293     C      0.432680000000     0.099900000000     0.508030000000    -0.0560927  
C294     C      0.499270000000     0.090650000000     0.501480000000     0.0950531  
C295     C      0.461730000000     0.047300000000     0.512680000000    -0.00507231 
C296     C      0.428090000000     0.110730000000     0.578540000000    -0.0567561  
C297     C      0.092710000000     0.373460000000     0.833970000000    -0.0317325  
C298     C      0.077460000000     0.473540000000     0.906370000000    -0.0297871  
C299     C      0.024200000000     0.450130000000     0.902190000000    -0.00665999 
C300     C      0.065640000000     0.489680000000     0.907710000000    -0.00697722 
C301     C      0.077070000000     0.433440000000     0.841030000000    -0.0544448  
C302     C      0.095060000000     0.415440000000     0.893990000000    -0.0537416  
C303     C      0.074470000000     0.437900000000     0.876660000000     0.0615707  
C304     C      0.038310000000     0.436160000000     0.901560000000    -0.0299284  
C305     C      0.097890000000     0.411200000000     0.858320000000     0.0604451  
C306     C      0.131100000000     0.410780000000     0.826750000000    -0.0583303  
C307     C      0.088530000000     0.420090000000     0.831820000000    -0.0560185  
C308     C      0.145690000000     0.397210000000     0.823170000000     0.0950395  
C309     C      0.104190000000     0.357110000000     0.834330000000    -0.00451285 
C310     C      0.083310000000     0.428550000000     0.903210000000    -0.0568565  
C311     C      0.190730000000     0.244700000000     0.794720000000    -0.0316442  
C312     C      0.282590000000     0.226460000000     0.703310000000    -0.0300549  
C313     C      0.262660000000     0.173460000000     0.697140000000    -0.00696601 
C314     C      0.300160000000     0.216640000000     0.698220000000    -0.00678769 
C315     C      0.243990000000     0.221160000000     0.771350000000    -0.0544341  
C316     C      0.223840000000     0.240350000000     0.723630000000    -0.0537196  
C317     C      0.246220000000     0.218720000000     0.734880000000     0.0613586  
C318     C      0.247020000000     0.185650000000     0.702500000000    -0.0301887  
C319     C      0.222390000000     0.243580000000     0.760100000000     0.0604882  
C320     C      0.230460000000     0.280670000000     0.790420000000    -0.0583308  
C321     C      0.232110000000     0.233380000000     0.783990000000    -0.0561751  
C322     C      0.220720000000     0.298430000000     0.797230000000     0.0949945  
C323     C      0.177330000000     0.259180000000     0.798770000000    -0.00420817 
C324     C      0.235560000000     0.227940000000     0.711000000000    -0.0566887  
C325     C      0.494050000000     0.462460000000     0.651420000000    -0.0315071  
C326     C      0.475250000000     0.478460000000     0.839180000000    -0.0301263  
C327     C      0.502820000000     0.459330000000     0.876280000000    -0.00748119 
C328     C      0.468760000000     0.469280000000     0.877430000000    -0.00723654 
C329     C      0.470740000000     0.452360000000     0.760070000000    -0.0545052  
C330     C      0.509070000000     0.496060000000     0.732580000000    -0.053933   
C331     C      0.488020000000     0.469880000000     0.783220000000     0.0609237  
C332     C      0.508000000000     0.468430000000     0.837880000000    -0.0300615  
C333     C      0.492190000000     0.478230000000     0.709340000000     0.0602245  
C334     C      0.477600000000     0.489530000000     0.657370000000    -0.0580249  
C335     C      0.472540000000     0.456550000000     0.723500000000    -0.0561053  
C336     C      0.484720000000     0.499610000000     0.619400000000     0.0945381  
C337     C      0.502880000000     0.470710000000     0.613620000000    -0.00599242 
C338     C      0.506890000000     0.492140000000     0.769210000000    -0.0564199  
C339     C      0.543380000000     0.519070000000     0.147270000000    -0.0323806  
C340     C      0.520310000000     0.536950000000     0.333300000000    -0.0298542  
C341     C      0.522410000000     0.495750000000     0.365820000000    -0.00673392 
C342     C      0.509330000000     0.528390000000     0.370260000000    -0.00723538 
C343     C      0.506730000000     0.504880000000     0.251070000000    -0.0541214  
C344     C      0.549290000000     0.546360000000     0.227130000000    -0.0541121  
C345     C      0.523570000000     0.521250000000     0.275770000000     0.0610456  
C346     C      0.533110000000     0.506610000000     0.329490000000    -0.0298871  
C347     C      0.532110000000     0.530310000000     0.202440000000     0.0606426  
C348     C      0.516580000000     0.536790000000     0.146860000000    -0.0603521  
C349     C      0.511000000000     0.509150000000     0.214740000000    -0.0560879  
C350     C      0.523970000000     0.545740000000     0.108580000000     0.0949318  
C351     C      0.551500000000     0.527700000000     0.109120000000    -0.00658288 
C352     C      0.545260000000     0.541800000000     0.263500000000    -0.0564528  
C353     C      0.854210000000     0.183730000000     0.991790000000    -0.0321147  
C354     C      0.823380000000     0.190780000000     0.807530000000    -0.0301542  
C355     C      0.869140000000     0.196990000000     0.779130000000    -0.00668416 
C356     C      0.829520000000     0.197230000000     0.768280000000    -0.00760078 
C357     C      0.860380000000     0.218340000000     0.887070000000    -0.0544582  
C358     C      0.822440000000     0.177240000000     0.920440000000    -0.0537756  
C359     C      0.842690000000     0.199160000000     0.866390000000     0.0613377  
C360     C      0.860880000000     0.189600000000     0.817340000000    -0.0298975  
C361     C      0.840140000000     0.196450000000     0.941120000000     0.0602054  
C362     C      0.844990000000     0.216310000000     0.998600000000    -0.0586635  
C363     C      0.859510000000     0.216880000000     0.923980000000    -0.0557818  
C364     C      0.839360000000     0.211220000000     0.038360000000     0.0950394  
C365     C      0.846980000000     0.174610000000     0.029680000000    -0.00487828 
C366     C      0.823870000000     0.178270000000     0.883460000000    -0.0565159  
C367     C      0.826920000000     0.125490000000     0.499210000000    -0.0311468  
C368     C      0.841900000000     0.183560000000     0.325440000000    -0.0298772  
C369     C      0.832900000000     0.143480000000     0.277250000000    -0.00596888 
C370     C      0.848920000000     0.189530000000     0.286500000000    -0.0071289  
C371     C      0.854080000000     0.144830000000     0.387260000000    -0.053324   
C372     C      0.833290000000     0.163400000000     0.434540000000    -0.0542479  
C373     C      0.842890000000     0.157720000000     0.373990000000     0.0603842  
C374     C      0.825810000000     0.140070000000     0.316450000000    -0.0302186  
C375     C      0.845260000000     0.151310000000     0.447700000000     0.0614782  
C376     C      0.870840000000     0.155230000000     0.499390000000    -0.0588375  
C377     C      0.854660000000     0.140990000000     0.423630000000    -0.0566095  
C378     C      0.870450000000     0.149980000000     0.539720000000     0.0933202  
C379     C      0.823450000000     0.128920000000     0.538420000000    -0.00294805 
C380     C      0.831600000000     0.166170000000     0.398090000000    -0.0552482  
C381     C      0.138500000000     0.331210000000     0.461610000000    -0.031771   
C382     C      0.124260000000     0.312790000000     0.654300000000    -0.0303223  
C383     C      0.173480000000     0.334230000000     0.684050000000    -0.00752362 
C384     C      0.127320000000     0.305920000000     0.692140000000    -0.0062138  
C385     C      0.150730000000     0.338150000000     0.574640000000    -0.0554537  
C386     C      0.125360000000     0.292200000000     0.541860000000    -0.0540229  
C387     C      0.141390000000     0.316630000000     0.595440000000     0.0607668  
C388     C      0.167910000000     0.338790000000     0.646330000000    -0.0296415  
C389     C      0.136280000000     0.313470000000     0.520780000000     0.0602558  
C390     C      0.155650000000     0.304880000000     0.472470000000    -0.0593413  
C391     C      0.148890000000     0.336590000000     0.537720000000    -0.0553434  
C392     C      0.152360000000     0.296410000000     0.433760000000     0.0958426  
C393     C      0.134590000000     0.324350000000     0.422340000000    -0.0068571  
C394     C      0.128260000000     0.293740000000     0.578610000000    -0.054068   
C395     C      0.208850000000     0.322940000000     0.153170000000    -0.031623   
C396     C      0.193900000000     0.355060000000     0.972410000000    -0.0303357  
C397     C      0.160790000000     0.307950000000     0.938940000000    -0.00723381 
C398     C      0.196400000000     0.352100000000     0.932710000000    -0.00601567 
C399     C      0.210780000000     0.336770000000     0.042280000000    -0.0543195  
C400     C      0.175230000000     0.335890000000     0.087400000000    -0.0534118  
C401     C      0.188990000000     0.333910000000     0.027920000000     0.0612974  
C402     C      0.160810000000     0.313130000000     0.978530000000    -0.0299599  
C403     C      0.196580000000     0.337740000000     0.101840000000     0.060725   
C404     C      0.214200000000     0.363630000000     0.153290000000    -0.0573639  
C405     C      0.214810000000     0.339130000000     0.078800000000    -0.0561862  
C406     C      0.212540000000     0.364080000000     0.194170000000     0.0930737  
C407     C      0.204540000000     0.319180000000     0.193000000000    -0.00319552 
C408     C      0.171570000000     0.334430000000     0.050740000000    -0.0563795  
C409     C      0.071140000000     0.299400000000     0.254350000000    -0.0315615  
C410     C      0.952300000000     0.211970000000     0.176030000000    -0.0297525  
C411     C      0.926240000000     0.239510000000     0.181640000000    -0.0066604  
C412     C      0.924340000000     0.197570000000     0.175670000000    -0.00678533 
C413     C      0.993250000000     0.247710000000     0.242350000000    -0.0544115  
C414     C      0.029430000000     0.264090000000     0.190030000000    -0.0538961  
C415     C      0.986490000000     0.245440000000     0.206620000000     0.0612627  
C416     C      0.954140000000     0.251090000000     0.181520000000    -0.0299114  
C417     C      0.036160000000     0.266000000000     0.225810000000     0.0602702  
C418     C      0.066290000000     0.258830000000     0.254760000000    -0.0583601  
C419     C      0.017820000000     0.257980000000     0.252000000000    -0.0557616  
C420     C      0.093910000000     0.268700000000     0.259630000000     0.0946073  
C421     C      0.098940000000     0.311920000000     0.256880000000    -0.00618759 
C422     C      0.004810000000     0.254000000000     0.180390000000    -0.0566366  
C423     C      0.392670000000     0.451250000000     0.458360000000    -0.0316701  
C424     C      0.281760000000     0.357310000000     0.368850000000    -0.030059   
C425     C      0.254540000000     0.383730000000     0.368020000000    -0.00740018 
C426     C      0.253900000000     0.342680000000     0.364600000000    -0.00704168 
C427     C      0.333440000000     0.402250000000     0.376830000000    -0.0566601  
C428     C      0.343590000000     0.404950000000     0.449410000000    -0.0560546  
C429     C      0.314030000000     0.391380000000     0.401320000000     0.0610969  
C430     C      0.282340000000     0.396070000000     0.372120000000    -0.0298222  
C431     C      0.363020000000     0.416260000000     0.425000000000     0.0602688  
C432     C      0.396370000000     0.415050000000     0.455080000000    -0.0580353  
C433     C      0.357710000000     0.414620000000     0.388700000000    -0.053837   
C434     C      0.424280000000     0.429410000000     0.461110000000     0.0944268  
C435     C      0.420110000000     0.468560000000     0.462290000000    -0.00512468 
C436     C      0.319350000000     0.392680000000     0.437550000000    -0.0544062  
C437     C      0.544150000000     0.055490000000     0.833870000000    -0.0316452  
C438     C      0.527570000000     0.011580000000     0.650780000000    -0.0300784  
C439     C      0.554200000000     0.056280000000     0.608400000000    -0.00709039 
C440     C      0.518930000000     0.011510000000     0.612930000000    -0.00634154 
C441     C      0.522650000000     0.037660000000     0.724630000000    -0.054288   
C442     C      0.560900000000     0.034490000000     0.757000000000    -0.0540984  
C443     C      0.540340000000     0.036550000000     0.703580000000     0.0614515  
C444     C      0.560220000000     0.053730000000     0.646890000000    -0.0296848  
C445     C      0.543400000000     0.036010000000     0.778070000000     0.060652   
C446     C      0.526770000000     0.011210000000     0.830460000000    -0.0590572  
C447     C      0.523910000000     0.037090000000     0.761510000000    -0.0561482  
C448     C      0.531160000000     0.009400000000     0.870160000000     0.0951079  
C449     C      0.549650000000     0.055620000000     0.873250000000    -0.00653745 
C450     C      0.559290000000     0.034450000000     0.720040000000    -0.0566137  
C451     C      0.471000000000     0.005860000000     0.147890000000    -0.0313775  
C452     C      0.528840000000     0.051660000000     0.321660000000    -0.030049   
C453     C      0.494550000000     0.009890000000     0.364780000000    -0.00656255 
C454     C      0.528630000000     0.054950000000     0.361760000000    -0.00691227 
C455     C      0.481400000000     0.032890000000     0.256990000000    -0.0544598  
C456     C      0.514780000000     0.029450000000     0.212000000000    -0.0539263  
C457     C      0.501600000000     0.032360000000     0.271480000000     0.0612466  
C458     C      0.497050000000     0.008950000000     0.324620000000    -0.0302259  
C459     C      0.494840000000     0.030470000000     0.197510000000     0.0607269  
C460     C      0.491250000000     0.050640000000     0.144430000000    -0.0586524  
C461     C      0.477810000000     0.031650000000     0.220360000000    -0.0563343  
C462     C      0.484930000000     0.047580000000     0.104260000000     0.0927266  
C463     C      0.474440000000     0.002440000000     0.108710000000    -0.00321776 
C464     C      0.518040000000     0.030060000000     0.248700000000    -0.0567454  
C465     C      0.611020000000     0.055020000000     0.057440000000    -0.0315878  
C466     C      0.731120000000     0.147410000000     0.128770000000    -0.0302798  
C467     C      0.751990000000     0.116620000000     0.147460000000    -0.00701551 
C468     C      0.752420000000     0.156830000000     0.155170000000    -0.0070028  
C469     C      0.671610000000     0.098970000000     0.128270000000    -0.0546032  
C470     C      0.672120000000     0.102890000000     0.054400000000    -0.0537255  
C471     C      0.694040000000     0.110780000000     0.110360000000     0.0613449  
C472     C      0.730850000000     0.108720000000     0.121280000000    -0.0300695  
C473     C      0.649660000000     0.090960000000     0.072290000000     0.0602725  
C474     C      0.614290000000     0.094920000000     0.059720000000    -0.0585123  
C475     C      0.649580000000     0.089200000000     0.109540000000    -0.0559379  
C476     C      0.592870000000     0.087490000000     0.033860000000     0.0951701  
C477     C      0.590120000000     0.045250000000     0.030590000000    -0.0063839  
C478     C      0.694170000000     0.112790000000     0.073160000000    -0.056753   
C479     C      0.176430000000     0.888080000000     0.651850000000    -0.0325831  
C480     C      0.187750000000     0.849500000000     0.472720000000    -0.0298133  
C481     C      0.145340000000     0.844040000000     0.433700000000    -0.00666173 
C482     C      0.179890000000     0.834340000000     0.438720000000    -0.00712074 
C483     C      0.158330000000     0.843150000000     0.554010000000    -0.054339   
C484     C      0.197400000000     0.890400000000     0.567400000000    -0.0542131  
C485     C      0.171760000000     0.858220000000     0.525600000000     0.0611505  
C486     C      0.154910000000     0.858930000000     0.468010000000    -0.0303027  
C487     C      0.184730000000     0.874870000000     0.595850000000     0.060778   
C488     C      0.199440000000     0.866210000000     0.650310000000    -0.0604383  
C489     C      0.164520000000     0.851430000000     0.588880000000    -0.056247   
C490     C      0.211590000000     0.877460000000     0.685910000000     0.0952145  
C491     C      0.188040000000     0.899870000000     0.687510000000    -0.00614025 
C492     C      0.190860000000     0.882310000000     0.532490000000    -0.0565095  
C493     C      0.141700000000     0.806690000000     0.146400000000    -0.0318836  
C494     C      0.160530000000     0.867260000000     0.975870000000    -0.0299989  
C495     C      0.158510000000     0.829780000000     0.927420000000    -0.005708   
C496     C      0.167650000000     0.874450000000     0.937020000000    -0.00669889 
C497     C      0.180710000000     0.834670000000     0.036670000000    -0.0550071  
C498     C      0.150690000000     0.841540000000     0.083960000000    -0.0520849  
C499     C      0.165490000000     0.843260000000     0.023850000000     0.0618679  
C500     C      0.150290000000     0.825320000000     0.966020000000    -0.03004    
C501     C      0.165600000000     0.832420000000     0.096910000000     0.0583038  
C502     C      0.185520000000     0.824400000000     0.148130000000    -0.0587385  
C503     C      0.180610000000     0.828970000000     0.072440000000    -0.0537833  
C504     C      0.183810000000     0.819220000000     0.188640000000     0.0931003  
C505     C      0.138930000000     0.809690000000     0.185960000000    -0.00275181 
C506     C      0.150040000000     0.846220000000     0.047820000000    -0.0570795  
C507     C      0.285000000000     0.905350000000     0.861690000000    -0.0316357  
C508     C      0.406520000000     0.000830000000     0.923050000000    -0.0299389  
C509     C      0.424280000000     0.969770000000     0.953310000000    -0.00699602 
C510     C      0.427790000000     0.012070000000     0.949440000000    -0.00752768 
C511     C      0.345650000000     0.952980000000     0.930950000000    -0.0543979  
C512     C      0.344220000000     0.953400000000     0.856880000000    -0.0539733  
C513     C      0.367600000000     0.963930000000     0.911810000000     0.0611999  
C514     C      0.403370000000     0.960820000000     0.926440000000    -0.0301072  
C515     C      0.322250000000     0.942680000000     0.876050000000     0.0603049  
C516     C      0.284710000000     0.943530000000     0.866580000000    -0.0584129  
C517     C      0.323150000000     0.942320000000     0.913360000000    -0.0559515  
C518     C      0.262070000000     0.934380000000     0.842540000000     0.09445    
C519     C      0.263420000000     0.894520000000     0.836010000000    -0.00655562 
C520     C      0.366750000000     0.963840000000     0.874500000000    -0.0566     
C521     C      0.814320000000     0.664610000000     0.793600000000    -0.0318925  
C522     C      0.843320000000     0.711900000000     0.975750000000    -0.0301614  
C523     C      0.805440000000     0.670120000000     0.014860000000    -0.00675408 
C524     C      0.838290000000     0.714920000000     0.014510000000    -0.00707343 
C525     C      0.803710000000     0.688980000000     0.899470000000    -0.0545429  
C526     C      0.844680000000     0.690830000000     0.867840000000    -0.0536825  
C527     C      0.822870000000     0.691170000000     0.920880000000     0.0611642  
C528     C      0.811890000000     0.668550000000     0.976170000000    -0.0303966  
C529     C      0.825930000000     0.689570000000     0.846370000000     0.0600892  
C530     C      0.822350000000     0.706150000000     0.789640000000    -0.058367   
C531     C      0.804940000000     0.687750000000     0.862610000000    -0.0558518  
C532     C      0.829460000000     0.708550000000     0.750180000000     0.0947023  
C533     C      0.823520000000     0.664500000000     0.756290000000    -0.00420029 
C534     C      0.843050000000     0.691200000000     0.904770000000    -0.0565557  
C535     C      0.889570000000     0.697250000000     0.287430000000    -0.0317156  
C536     C      0.858160000000     0.663740000000     0.474330000000    -0.03033    
C537     C      0.877020000000     0.711190000000     0.509450000000    -0.0073594  
C538     C      0.865430000000     0.666320000000     0.513520000000    -0.00652359 
C539     C      0.888880000000     0.682920000000     0.398550000000    -0.0544819  
C540     C      0.849730000000     0.682400000000     0.362900000000    -0.0535114  
C541     C      0.870940000000     0.684760000000     0.417990000000     0.0612632  
C542     C      0.869620000000     0.706850000000     0.470400000000    -0.0299665  
C543     C      0.868160000000     0.681510000000     0.343360000000     0.0604373  
C544     C      0.856870000000     0.655500000000     0.291600000000    -0.0577774  
C545     C      0.887380000000     0.680910000000     0.361630000000    -0.0559461  
C546     C      0.849610000000     0.654140000000     0.252300000000     0.0940246  
C547     C      0.884990000000     0.699840000000     0.248340000000    -0.00415443 
C548     C      0.850830000000     0.683630000000     0.399900000000    -0.0564508  
C549     C      0.736090000000     0.651590000000     0.590860000000    -0.03186    
C550     C      0.619310000000     0.549150000000     0.526340000000    -0.0298366  
C551     C      0.586410000000     0.569370000000     0.526190000000    -0.00686796 
C552     C      0.591710000000     0.531380000000     0.527270000000    -0.00702584 
C553     C      0.668480000000     0.595740000000     0.523930000000    -0.0567347  
C554     C      0.683510000000     0.608000000000     0.594380000000    -0.0559019  
C555     C      0.650860000000     0.587670000000     0.551150000000     0.0612871  
C556     C      0.614390000000     0.584920000000     0.524960000000    -0.0298423  
C557     C      0.701220000000     0.615060000000     0.567390000000     0.0601415  
C558     C      0.733210000000     0.612170000000     0.598200000000    -0.0584408  
C559     C      0.693450000000     0.609160000000     0.532140000000    -0.0537515  
C560     C      0.761060000000     0.623280000000     0.601650000000     0.0948046  
C561     C      0.764060000000     0.665460000000     0.591450000000    -0.00570826 
C562     C      0.658600000000     0.594310000000     0.586220000000    -0.0543959  
C563     C      0.073050000000     0.789720000000     0.754650000000    -0.0315879  
C564     C      0.953240000000     0.760400000000     0.682680000000    -0.0300886  
C565     C      0.931220000000     0.708600000000     0.663560000000    -0.00720227 
C566     C      0.932610000000     0.749490000000     0.655280000000    -0.00700952 
C567     C      0.012100000000     0.771110000000     0.683600000000    -0.0544881  
C568     C      0.011490000000     0.774540000000     0.757440000000    -0.0538482  
C569     C      0.989650000000     0.759940000000     0.701510000000     0.0611784  
C570     C      0.952080000000     0.721430000000     0.690420000000    -0.0301363  
C571     C      0.033960000000     0.785750000000     0.739520000000     0.0601835  
C572     C      0.068680000000     0.825780000000     0.751740000000    -0.0584116  
C573     C      0.034090000000     0.783980000000     0.702300000000    -0.0560523  
C574     C      0.090310000000     0.840380000000     0.777130000000     0.0944803  
C575     C      0.094120000000     0.801770000000     0.781100000000    -0.0068238  
C576     C      0.989480000000     0.761780000000     0.738700000000    -0.056734   
Cu1      Cu     0.847300000000     0.706570000000     0.627690000000     0.838366   
Cu2      Cu     0.845550000000     0.666710000000     0.635970000000     0.837279   
Cu3      Cu     0.175650000000     0.886650000000     0.812470000000     0.833879   
Cu4      Cu     0.179110000000     0.849420000000     0.806730000000     0.838921   
Cu5      Cu     0.511440000000     0.049050000000     0.985220000000     0.840584   
Cu6      Cu     0.506970000000     0.007980000000     0.993210000000     0.83757    
Cu7      Cu     0.177040000000     0.347070000000     0.310420000000     0.836221   
Cu8      Cu     0.175380000000     0.306960000000     0.310180000000     0.841376   
Cu9      Cu     0.840290000000     0.198690000000     0.163660000000     0.839812   
Cu10     Cu     0.839480000000     0.159490000000     0.153030000000     0.840809   
Cu11     Cu     0.502650000000     0.517340000000     0.495360000000     0.836219   
Cu12     Cu     0.509330000000     0.481940000000     0.489650000000     0.838182   
Cu13     Cu     0.141830000000     0.309250000000     0.816670000000     0.839753   
Cu14     Cu     0.182070000000     0.346670000000     0.808720000000     0.841817   
Cu15     Cu     0.311680000000     0.145150000000     0.639770000000     0.840001   
Cu16     Cu     0.345720000000     0.187930000000     0.635200000000     0.838347   
Cu17     Cu     0.985470000000     0.492740000000     0.948030000000     0.838616   
Cu18     Cu     0.025630000000     0.530310000000     0.955510000000     0.840146   
Cu19     Cu     0.665700000000     0.839130000000     0.307370000000     0.836663   
Cu20     Cu     0.706020000000     0.876840000000     0.311970000000     0.841275   
Cu21     Cu     0.826160000000     0.664180000000     0.135520000000     0.837311   
Cu22     Cu     0.864710000000     0.703660000000     0.129220000000     0.841048   
Cu23     Cu     0.509560000000     0.010320000000     0.488270000000     0.843626   
Cu24     Cu     0.546630000000     0.051210000000     0.483170000000     0.838353   
Cu25     Cu     0.344450000000     0.159280000000     0.141500000000     0.840445   
Cu26     Cu     0.306720000000     0.161500000000     0.133590000000     0.838156   
Cu27     Cu     0.529450000000     0.497860000000     0.990730000000     0.837956   
Cu28     Cu     0.492470000000     0.501690000000     0.994960000000     0.837387   
Cu29     Cu     0.183370000000     0.831320000000     0.312870000000     0.841734   
Cu30     Cu     0.143590000000     0.829750000000     0.308640000000     0.83503    
Cu31     Cu     0.004560000000     0.487010000000     0.451470000000     0.836284   
Cu32     Cu     0.968250000000     0.492250000000     0.452500000000     0.842854   
Cu33     Cu     0.868290000000     0.171910000000     0.660240000000     0.840563   
Cu34     Cu     0.825950000000     0.163410000000     0.652150000000     0.840288   
Cu35     Cu     0.702590000000     0.829670000000     0.814240000000     0.839072   
Cu36     Cu     0.664480000000     0.831550000000     0.809750000000     0.843865   
H1       H      0.760530000000     0.963680000000     0.708550000000     0.0404471  
H2       H      0.765460000000     0.046500000000     0.707920000000     0.0341772  
H3       H      0.835990000000     0.055410000000     0.722100000000     0.045167   
H4       H      0.710560000000     0.925280000000     0.821020000000     0.037597   
H5       H      0.789990000000     0.074480000000     0.662130000000     0.036966   
H6       H      0.782290000000     0.949830000000     0.780890000000     0.0342237  
H7       H      0.716910000000     0.953170000000     0.772790000000     0.0340608  
H8       H      0.757790000000     0.904400000000     0.792090000000     0.0406766  
H9       H      0.781990000000     0.004390000000     0.680360000000     0.0438868  
H10      H      0.783780000000     0.091120000000     0.695150000000     0.0403343  
H11      H      0.770750000000     0.998040000000     0.810840000000     0.0441376  
H12      H      0.785200000000     0.066130000000     0.742640000000     0.0364801  
H13      H      0.691960000000     0.907850000000     0.784190000000     0.0403278  
H14      H      0.842420000000     0.083070000000     0.674970000000     0.0168126  
H15      H      0.760610000000     0.932870000000     0.746260000000     0.0371344  
H16      H      0.722580000000     0.934830000000     0.741570000000     0.0372556  
H17      H      0.791780000000     0.038670000000     0.782700000000     0.0398261  
H18      H      0.824970000000     0.070080000000     0.751860000000     0.0456873  
H19      H      0.755440000000     0.922860000000     0.826450000000     0.0373303  
H20      H      0.874220000000     0.116070000000     0.701150000000     0.0927922  
H21      H      0.856950000000     0.117020000000     0.736550000000     0.092674   
H22      H      0.935080000000     0.312900000000     0.563420000000     0.0399458  
H23      H      0.944590000000     0.364190000000     0.481930000000     0.0318175  
H24      H      0.905980000000     0.391360000000     0.541710000000     0.04378    
H25      H      0.846430000000     0.248980000000     0.623990000000     0.0389679  
H26      H      0.970590000000     0.407400000000     0.486280000000     0.0427275  
H27      H      0.923390000000     0.294530000000     0.622850000000     0.0338096  
H28      H      0.856400000000     0.270310000000     0.567530000000     0.0329939  
H29      H      0.909480000000     0.250360000000     0.639350000000     0.0405955  
H30      H      0.949940000000     0.351610000000     0.533540000000     0.0413318  
H31      H      0.957630000000     0.401390000000     0.442730000000     0.0311844  
H32      H      0.867520000000     0.311690000000     0.587610000000     0.0430192  
H33      H      0.919660000000     0.365980000000     0.462950000000     0.0351682  
H34      H      0.841280000000     0.227730000000     0.588620000000     0.0393962  
H35      H      0.917490000000     0.423470000000     0.505580000000     0.0214243  
H36      H      0.915410000000     0.273580000000     0.585840000000     0.0368006  
H37      H      0.876680000000     0.259130000000     0.555380000000     0.0392717  
H38      H      0.880820000000     0.348670000000     0.553770000000     0.0391793  
H39      H      0.890620000000     0.371440000000     0.504800000000     0.0449988  
H40      H      0.893380000000     0.263620000000     0.660490000000     0.0370275  
H41      H      0.905870000000     0.419360000000     0.446410000000     0.0929553  
H42      H      0.904260000000     0.391480000000     0.441790000000     0.0852482  
H43      H      0.074690000000     0.646210000000     0.437250000000     0.040514   
H44      H      0.141480000000     0.711960000000     0.352440000000     0.034046   
H45      H      0.072340000000     0.707420000000     0.348250000000     0.0447564  
H46      H      0.054850000000     0.562800000000     0.385240000000     0.0379599  
H47      H      0.151970000000     0.753090000000     0.364230000000     0.0385267  
H48      H      0.022650000000     0.609680000000     0.393900000000     0.0341186  
H49      H      0.086660000000     0.603770000000     0.398740000000     0.0339418  
H50      H      0.999170000000     0.569180000000     0.425980000000     0.0395523  
H51      H      0.096560000000     0.690050000000     0.421230000000     0.0444293  
H52      H      0.159630000000     0.752490000000     0.318820000000     0.0371847  
H53      H      0.068340000000     0.626780000000     0.326650000000     0.0439757  
H54      H      0.127320000000     0.711060000000     0.310570000000     0.0346852  
H55      H      0.062700000000     0.563040000000     0.430960000000     0.0393002  
H56      H      0.096890000000     0.749700000000     0.356830000000     0.0191578  
H57      H      0.035300000000     0.608390000000     0.436190000000     0.0365948  
H58      H      0.071960000000     0.605110000000     0.438940000000     0.0364868  
H59      H      0.090560000000     0.670490000000     0.310640000000     0.0394775  
H60      H      0.087680000000     0.706940000000     0.308460000000     0.0456043  
H61      H      0.008170000000     0.567220000000     0.381640000000     0.0356096  
H62      H      0.085340000000     0.761720000000     0.307720000000     0.092658   
H63      H      0.098970000000     0.750800000000     0.278510000000     0.0903692  
H64      H      0.615630000000     0.700820000000     0.920210000000     0.0406672  
H65      H      0.537830000000     0.614910000000     0.925140000000     0.0340841  
H66      H      0.602990000000     0.611780000000     0.914750000000     0.0451741  
H67      H      0.610490000000     0.737240000000     0.801400000000     0.0376444  
H68      H      0.536320000000     0.589630000000     0.973580000000     0.0369268  
H69      H      0.651910000000     0.708740000000     0.850190000000     0.0342678  
H70      H      0.586270000000     0.711970000000     0.850490000000     0.0340988  
H71      H      0.676050000000     0.753460000000     0.835140000000     0.040919   
H72      H      0.596230000000     0.661240000000     0.951630000000     0.0442764  
H73      H      0.514870000000     0.570140000000     0.940790000000     0.0390571  
H74      H      0.592150000000     0.662660000000     0.820350000000     0.0440976  
H75      H      0.539990000000     0.595060000000     0.892590000000     0.0358111  
H76      H      0.609880000000     0.756890000000     0.835490000000     0.0402892  
H77      H      0.584220000000     0.585160000000     0.963280000000     0.0179013  
H78      H      0.648380000000     0.728240000000     0.881940000000     0.0376986  
H79      H      0.609960000000     0.730040000000     0.882190000000     0.0375196  
H80      H      0.572300000000     0.623140000000     0.851710000000     0.0396637  
H81      H      0.577580000000     0.594430000000     0.885460000000     0.045712   
H82      H      0.654850000000     0.734970000000     0.801260000000     0.0368635  
H83      H      0.585700000000     0.552860000000     0.939490000000     0.0930995  
H84      H      0.565530000000     0.548530000000     0.904990000000     0.0924499  
H85      H      0.256500000000     0.037070000000     0.252340000000     0.0405425  
H86      H      0.182240000000     0.946470000000     0.266470000000     0.0344559  
H87      H      0.252880000000     0.954100000000     0.267210000000     0.0460238  
H88      H      0.251690000000     0.065490000000     0.128150000000     0.0372344  
H89      H      0.185260000000     0.925060000000     0.318290000000     0.0359315  
H90      H      0.293360000000     0.039880000000     0.182670000000     0.0342685  
H91      H      0.227770000000     0.043200000000     0.179530000000     0.0342121  
H92      H      0.317300000000     0.083130000000     0.161360000000     0.0410475  
H93      H      0.239150000000     0.000000000000     0.289550000000     0.0438188  
H94      H      0.163700000000     0.903580000000     0.287250000000     0.0413142  
H95      H      0.236150000000     0.991850000000     0.158580000000     0.0443218  
H96      H      0.188530000000     0.927670000000     0.236970000000     0.0383782  
H97      H      0.251210000000     0.087080000000     0.158940000000     0.0403265  
H98      H      0.231330000000     0.929150000000     0.317910000000     0.0167093  
H99      H      0.290470000000     0.061340000000     0.211280000000     0.0380478  
H100     H      0.251780000000     0.063160000000     0.209620000000     0.0375318  
H101     H      0.218830000000     0.954830000000     0.195680000000     0.040785   
H102     H      0.230220000000     0.932710000000     0.236760000000     0.0464008  
H103     H      0.294880000000     0.062800000000     0.130060000000     0.0367602  
H104     H      0.241490000000     0.899290000000     0.306350000000     0.0944359  
H105     H      0.231260000000     0.895100000000     0.262280000000     0.0948196  
H106     H      0.439680000000     0.363390000000     0.132210000000     0.0439535  
H107     H      0.424960000000     0.278470000000     0.102110000000     0.0343895  
H108     H      0.361380000000     0.284960000000     0.100640000000     0.0449193  
H109     H      0.496040000000     0.426380000000     0.077190000000     0.0368401  
H110     H      0.394330000000     0.238000000000     0.086870000000     0.0380548  
H111     H      0.418220000000     0.389150000000     0.067760000000     0.0339972  
H112     H      0.482840000000     0.384280000000     0.061700000000     0.0340942  
H113     H      0.439820000000     0.430440000000     0.037740000000     0.0399082  
H114     H      0.415660000000     0.319160000000     0.144560000000     0.0398475  
H115     H      0.400610000000     0.237060000000     0.132840000000     0.0390688  
H116     H      0.428410000000     0.348660000000     0.020150000000     0.0406389  
H117     H      0.410050000000     0.278480000000     0.142780000000     0.0354114  
H118     H      0.504830000000     0.425520000000     0.032250000000     0.0404703  
H119     H      0.344300000000     0.242960000000     0.087970000000     0.0190193  
H120     H      0.430760000000     0.388790000000     0.024980000000     0.0372577  
H121     H      0.468350000000     0.386100000000     0.021450000000     0.0373458  
H122     H      0.404410000000     0.304330000000     0.032460000000     0.0443514  
H123     H      0.374790000000     0.283250000000     0.141820000000     0.0461798  
H124     H      0.451380000000     0.429870000000     0.081010000000     0.0368357  
H125     H      0.317050000000     0.229530000000     0.132880000000     0.0927997  
H126     H      0.339060000000     0.238920000000     0.166030000000     0.0913536  
H127     H      0.724390000000     0.838890000000     0.595260000000     0.0399742  
H128     H      0.670050000000     0.791420000000     0.466530000000     0.0340997  
H129     H      0.711630000000     0.867000000000     0.493570000000     0.0446738  
H130     H      0.680970000000     0.785270000000     0.691600000000     0.0368192  
H131     H      0.696550000000     0.810910000000     0.416670000000     0.0357978  
H132     H      0.657690000000     0.828170000000     0.631250000000     0.0331114  
H133     H      0.707880000000     0.801920000000     0.641340000000     0.0339596  
H134     H      0.657560000000     0.833110000000     0.696360000000     0.0395671  
H135     H      0.728530000000     0.843970000000     0.531320000000     0.0431382  
H136     H      0.666040000000     0.802690000000     0.404110000000     0.0396207  
H137     H      0.645910000000     0.794330000000     0.583820000000     0.0429266  
H138     H      0.656670000000     0.811010000000     0.462720000000     0.0363397  
H139     H      0.709940000000     0.809260000000     0.707360000000     0.0405393  
H140     H      0.725850000000     0.863390000000     0.435910000000     0.0186353  
H141     H      0.687990000000     0.847970000000     0.648470000000     0.0386866  
H142     H      0.717030000000     0.833150000000     0.653980000000     0.0368464  
H143     H      0.649830000000     0.801560000000     0.520400000000     0.0395884  
H144     H      0.680400000000     0.853960000000     0.479070000000     0.046818   
H145     H      0.645530000000     0.801650000000     0.682920000000     0.038166   
H146     H      0.722840000000     0.895450000000     0.412750000000     0.0939523  
H147     H      0.691660000000     0.882320000000     0.421370000000     0.0900956  
H148     H      0.686660000000     0.827690000000     0.040250000000     0.0405312  
H149     H      0.720520000000     0.901560000000     0.139960000000     0.0350574  
H150     H      0.646050000000     0.846080000000     0.135500000000     0.0438841  
H151     H      0.721810000000     0.874290000000     0.929250000000     0.0377839  
H152     H      0.719040000000     0.892940000000     0.198780000000     0.0409926  
H153     H      0.652210000000     0.849410000000     0.983640000000     0.0337444  
H154     H      0.725040000000     0.862790000000     0.988580000000     0.0343092  
H155     H      0.648370000000     0.833740000000     0.921450000000     0.0392973  
H156     H      0.685130000000     0.833610000000     0.104160000000     0.0452725  
H157     H      0.706550000000     0.912820000000     0.201940000000     0.0333757  
H158     H      0.689280000000     0.896730000000     0.020690000000     0.0439246  
H159     H      0.696510000000     0.909030000000     0.142700000000     0.0321975  
H160     H      0.720080000000     0.844980000000     0.926590000000     0.0402211  
H161     H      0.649490000000     0.840650000000     0.194140000000     0.0241346  
H162     H      0.658390000000     0.824380000000     0.979570000000     0.0373362  
H163     H      0.699850000000     0.831890000000     0.982760000000     0.0358928  
H164     H      0.685910000000     0.901750000000     0.084330000000     0.0395592  
H165     H      0.654900000000     0.877910000000     0.138920000000     0.0445143  
H166     H      0.669330000000     0.866050000000     0.926590000000     0.0390658  
H167     H      0.633420000000     0.860620000000     0.226900000000     0.0930367  
H168     H      0.646980000000     0.886570000000     0.201110000000     0.0854927  
H169     H      0.760200000000     0.776380000000     0.286730000000     0.0405871  
H170     H      0.756580000000     0.708620000000     0.202610000000     0.0344359  
H171     H      0.821580000000     0.777420000000     0.193980000000     0.0454781  
H172     H      0.695760000000     0.795190000000     0.234260000000     0.039289   
H173     H      0.788580000000     0.699100000000     0.211040000000     0.0384652  
H174     H      0.774050000000     0.828780000000     0.248070000000     0.034394   
H175     H      0.705170000000     0.763240000000     0.246110000000     0.0341447  
H176     H      0.755120000000     0.849970000000     0.281870000000     0.0402194  
H177     H      0.781420000000     0.754100000000     0.269290000000     0.0444402  
H178     H      0.776000000000     0.688840000000     0.167730000000     0.0398388  
H179     H      0.745670000000     0.783150000000     0.176860000000     0.0445079  
H180     H      0.767850000000     0.722190000000     0.159690000000     0.0362377  
H181     H      0.686420000000     0.784840000000     0.278820000000     0.0395594  
H182     H      0.837210000000     0.750410000000     0.201170000000     0.0179958  
H183     H      0.759190000000     0.814020000000     0.288960000000     0.036414   
H184     H      0.719720000000     0.776580000000     0.287810000000     0.0366948  
H185     H      0.766170000000     0.760320000000     0.159460000000     0.0399403  
H186     H      0.804240000000     0.762000000000     0.155060000000     0.0461421  
H187     H      0.745780000000     0.842900000000     0.236550000000     0.0384149  
H188     H      0.861210000000     0.763710000000     0.152360000000     0.0930089  
H189     H      0.836800000000     0.753000000000     0.122610000000     0.0931183  
H190     H      0.592550000000     0.968400000000     0.376900000000     0.0406447  
H191     H      0.668800000000     0.954980000000     0.365840000000     0.0340653  
H192     H      0.599650000000     0.890610000000     0.376040000000     0.045386   
H193     H      0.604400000000     0.013880000000     0.492670000000     0.0371156  
H194     H      0.666070000000     0.929030000000     0.317060000000     0.0361622  
H195     H      0.560960000000     0.941100000000     0.454450000000     0.0341989  
H196     H      0.624810000000     0.010670000000     0.440250000000     0.0341116  
H197     H      0.537340000000     0.961350000000     0.472930000000     0.0409276  
H198     H      0.609160000000     0.946600000000     0.343050000000     0.0438917  
H199     H      0.687690000000     0.929910000000     0.348680000000     0.0395869  
H200     H      0.619890000000     0.954200000000     0.473610000000     0.0439634  
H201     H      0.664500000000     0.931960000000     0.398170000000     0.0358123  
H202     H      0.601620000000     0.031890000000     0.457870000000     0.0404769  
H203     H      0.617360000000     0.882350000000     0.325810000000     0.0166384  
H204     H      0.560870000000     0.961790000000     0.421260000000     0.0380529  
H205     H      0.598410000000     0.002610000000     0.412780000000     0.0374918  
H206     H      0.636310000000     0.932260000000     0.439910000000     0.0396604  
H207     H      0.624390000000     0.895480000000     0.404960000000     0.0455808  
H208     H      0.562110000000     0.967340000000     0.502350000000     0.036885   
H209     H      0.610030000000     0.845170000000     0.346280000000     0.0930349  
H210     H      0.628300000000     0.857150000000     0.384010000000     0.0922126  
H211     H      0.001570000000     0.487720000000     0.674980000000     0.0410182  
H212     H      0.043690000000     0.557240000000     0.782400000000     0.0348291  
H213     H      0.967750000000     0.506790000000     0.776120000000     0.044238   
H214     H      0.035470000000     0.536630000000     0.565340000000     0.037383   
H215     H      0.040780000000     0.544200000000     0.839850000000     0.0397038  
H216     H      0.970730000000     0.517550000000     0.627190000000     0.0339667  
H217     H      0.040190000000     0.522350000000     0.622340000000     0.0344775  
H218     H      0.962540000000     0.503440000000     0.564220000000     0.040022   
H219     H      0.002370000000     0.491270000000     0.739630000000     0.0452942  
H220     H      0.032750000000     0.567330000000     0.846770000000     0.0340558  
H221     H      0.012470000000     0.561050000000     0.665460000000     0.0437708  
H222     H      0.021570000000     0.567060000000     0.788300000000     0.032331   
H223     H      0.031350000000     0.506480000000     0.559310000000     0.0408314  
H224     H      0.972280000000     0.497270000000     0.833060000000     0.0238323  
H225     H      0.972810000000     0.490300000000     0.619360000000     0.0384327  
H226     H      0.012720000000     0.492950000000     0.616730000000     0.0371226  
H227     H      0.011420000000     0.563880000000     0.729980000000     0.0394818  
H228     H      0.979290000000     0.538850000000     0.784270000000     0.0447838  
H229     H      0.987150000000     0.534480000000     0.569640000000     0.0383694  
H230     H      0.954520000000     0.513900000000     0.868870000000     0.0935287  
H231     H      0.969400000000     0.542210000000     0.848740000000     0.0850329  
H232     H      0.957080000000     0.464800000000     0.156290000000     0.0401224  
H233     H      0.995450000000     0.447580000000     0.284980000000     0.0342426  
H234     H      0.963900000000     0.492890000000     0.269500000000     0.0450514  
H235     H      0.006420000000     0.458240000000     0.065220000000     0.0364873  
H236     H      0.964670000000     0.437000000000     0.330560000000     0.034214   
H237     H      0.027930000000     0.519210000000     0.133630000000     0.0332823  
H238     H      0.975220000000     0.444890000000     0.110600000000     0.03406    
H239     H      0.032830000000     0.529340000000     0.069300000000     0.0394826  
H240     H      0.947400000000     0.458510000000     0.219140000000     0.043163   
H241     H      0.994400000000     0.452000000000     0.350490000000     0.03927    
H242     H      0.033210000000     0.490970000000     0.180180000000     0.0428828  
H243     H      0.011860000000     0.479280000000     0.299620000000     0.0382064  
H244     H      0.978890000000     0.454640000000     0.045670000000     0.0406474  
H245     H      0.943810000000     0.467020000000     0.320380000000     0.0171258  
H246     H      0.999360000000     0.512210000000     0.113050000000     0.0391511  
H247     H      0.968710000000     0.469090000000     0.099260000000     0.0377368  
H248     H      0.023930000000     0.487120000000     0.243140000000     0.0399929  
H249     H      0.993770000000     0.505590000000     0.289370000000     0.0474733  
H250     H      0.041730000000     0.507100000000     0.081190000000     0.0375354  
H251     H      0.948190000000     0.499050000000     0.355180000000     0.0939286  
H252     H      0.979780000000     0.516670000000     0.348990000000     0.0918709  
H253     H      0.921560000000     0.605310000000     0.102090000000     0.0401549  
H254     H      0.915660000000     0.537700000000     0.013070000000     0.0342662  
H255     H      0.982100000000     0.605530000000     0.010960000000     0.0448545  
H256     H      0.853370000000     0.619560000000     0.057760000000     0.0378516  
H257     H      0.945570000000     0.525620000000     0.021650000000     0.0377504  
H258     H      0.932540000000     0.657480000000     0.058060000000     0.0339154  
H259     H      0.866070000000     0.590000000000     0.069200000000     0.0338985  
H260     H      0.914470000000     0.678970000000     0.092870000000     0.0393663  
H261     H      0.942590000000     0.583060000000     0.083570000000     0.0440703  
H262     H      0.935390000000     0.518510000000     0.976750000000     0.0386201  
H263     H      0.905120000000     0.611480000000     0.992910000000     0.0439953  
H264     H      0.928700000000     0.552730000000     0.971550000000     0.0351446  
H265     H      0.848190000000     0.611660000000     0.103830000000     0.0391275  
H266     H      0.996580000000     0.577630000000     0.017530000000     0.0184417  
H267     H      0.921530000000     0.644820000000     0.101520000000     0.0361251  
H268     H      0.883410000000     0.606180000000     0.107920000000     0.0359133  
H269     H      0.926230000000     0.589450000000     0.974350000000     0.0395485  
H270     H      0.965770000000     0.591740000000     0.970660000000     0.0457023  
H271     H      0.901420000000     0.668380000000     0.049810000000     0.0379984  
H272     H      0.021800000000     0.591400000000     0.970150000000     0.0927652  
H273     H      0.998290000000     0.581540000000     0.939180000000     0.090752   
H274     H      0.375510000000     0.171200000000     0.926800000000     0.040179   
H275     H      0.334280000000     0.116720000000     0.798790000000     0.0346801  
H276     H      0.365360000000     0.193550000000     0.814890000000     0.0453502  
H277     H      0.327000000000     0.115060000000     0.018830000000     0.0369185  
H278     H      0.363540000000     0.138040000000     0.751440000000     0.0350886  
H279     H      0.307080000000     0.158200000000     0.953790000000     0.0333901  
H280     H      0.356930000000     0.132350000000     0.972000000000     0.0341475  
H281     H      0.304030000000     0.163170000000     0.018840000000     0.0392835  
H282     H      0.383550000000     0.174630000000     0.863350000000     0.0434506  
H283     H      0.333200000000     0.122150000000     0.733540000000     0.0398345  
H284     H      0.298420000000     0.123250000000     0.906500000000     0.0431638  
H285     H      0.316810000000     0.131360000000     0.786420000000     0.0387207  
H286     H      0.355190000000     0.138490000000     0.037520000000     0.0408303  
H287     H      0.383540000000     0.187530000000     0.761820000000     0.0173063  
H288     H      0.336440000000     0.178190000000     0.973760000000     0.038882   
H289     H      0.365240000000     0.163400000000     0.984500000000     0.037189   
H290     H      0.306150000000     0.128720000000     0.843100000000     0.0402778  
H291     H      0.334820000000     0.176130000000     0.797130000000     0.0473487  
H292     H      0.292480000000     0.131760000000     0.005500000000     0.0381575  
H293     H      0.377950000000     0.215120000000     0.728070000000     0.0944807  
H294     H      0.347040000000     0.202260000000     0.739220000000     0.0927414  
H295     H      0.277830000000     0.151630000000     0.349950000000     0.039989   
H296     H      0.290460000000     0.135340000000     0.465860000000     0.0338038  
H297     H      0.319030000000     0.212560000000     0.471310000000     0.0461105  
H298     H      0.359250000000     0.189180000000     0.268490000000     0.0379822  
H299     H      0.272230000000     0.144430000000     0.516670000000     0.0364458  
H300     H      0.295720000000     0.190360000000     0.302940000000     0.03392    
H301     H      0.345130000000     0.164060000000     0.321470000000     0.0332714  
H302     H      0.296170000000     0.182520000000     0.237640000000     0.0395775  
H303     H      0.270660000000     0.150760000000     0.413530000000     0.0430645  
H304     H      0.291670000000     0.132680000000     0.531190000000     0.0392276  
H305     H      0.354940000000     0.201570000000     0.366890000000     0.043171   
H306     H      0.321030000000     0.154560000000     0.482800000000     0.0394253  
H307     H      0.346880000000     0.157420000000     0.256490000000     0.0391593  
H308     H      0.290210000000     0.192340000000     0.519670000000     0.0174867  
H309     H      0.286850000000     0.158960000000     0.291800000000     0.0367752  
H310     H      0.315390000000     0.143910000000     0.302700000000     0.0381872  
H311     H      0.348130000000     0.198710000000     0.430640000000     0.0402279  
H312     H      0.337850000000     0.200070000000     0.486670000000     0.0456396  
H313     H      0.324710000000     0.206320000000     0.254890000000     0.0353012  
H314     H      0.316330000000     0.216560000000     0.567080000000     0.0939281  
H315     H      0.342270000000     0.221170000000     0.543840000000     0.0951669  
H316     H      0.426350000000     0.114620000000     0.605970000000     0.0406818  
H317     H      0.429560000000     0.048540000000     0.528260000000     0.0344067  
H318     H      0.491060000000     0.119370000000     0.514300000000     0.0448792  
H319     H      0.350660000000     0.113300000000     0.554970000000     0.0370705  
H320     H      0.462140000000     0.041130000000     0.540210000000     0.0386158  
H321     H      0.428190000000     0.161740000000     0.559950000000     0.0341321  
H322     H      0.369080000000     0.088630000000     0.568570000000     0.0341011  
H323     H      0.403600000000     0.177150000000     0.592530000000     0.0398597  
H324     H      0.452640000000     0.097330000000     0.591060000000     0.0445825  
H325     H      0.452340000000     0.030410000000     0.496100000000     0.0385767  
H326     H      0.407990000000     0.113100000000     0.495550000000     0.0439837  
H327     H      0.440550000000     0.060500000000     0.484560000000     0.0353626  
H328     H      0.344250000000     0.103730000000     0.600390000000     0.04035    
H329     H      0.511110000000     0.097210000000     0.525520000000     0.019183   
H330     H      0.417780000000     0.148210000000     0.603160000000     0.0370068  
H331     H      0.383510000000     0.105980000000     0.608130000000     0.0372154  
H332     H      0.434100000000     0.095690000000     0.480630000000     0.0397807  
H333     H      0.474320000000     0.100980000000     0.476880000000     0.0459401  
H334     H      0.392020000000     0.164630000000     0.549470000000     0.0371284  
H335     H      0.532900000000     0.106930000000     0.474850000000     0.0928971  
H336     H      0.507580000000     0.090650000000     0.447690000000     0.091027   
H337     H      0.081150000000     0.431370000000     0.930960000000     0.0405615  
H338     H      0.075360000000     0.364090000000     0.849450000000     0.0343146  
H339     H      0.143470000000     0.429410000000     0.837900000000     0.0446584  
H340     H      0.018370000000     0.451180000000     0.874720000000     0.0393074  
H341     H      0.102860000000     0.349860000000     0.861660000000     0.0396563  
H342     H      0.096010000000     0.484460000000     0.894430000000     0.0343016  
H343     H      0.027430000000     0.418920000000     0.886110000000     0.0342087  
H344     H      0.075740000000     0.504570000000     0.927420000000     0.0402772  
H345     H      0.101880000000     0.408440000000     0.914660000000     0.0444786  
H346     H      0.093110000000     0.340930000000     0.816990000000     0.0375405  
H347     H      0.070070000000     0.440270000000     0.820370000000     0.0445507  
H348     H      0.087970000000     0.375660000000     0.806240000000     0.0353073  
H349     H      0.007320000000     0.439390000000     0.918250000000     0.0397765  
H350     H      0.158320000000     0.402590000000     0.846340000000     0.019024   
H351     H      0.079670000000     0.468500000000     0.933890000000     0.0364388  
H352     H      0.040360000000     0.430990000000     0.929080000000     0.0368611  
H353     H      0.090020000000     0.416680000000     0.804090000000     0.0398961  
H354     H      0.125280000000     0.413450000000     0.799980000000     0.0457633  
H355     H      0.067920000000     0.498620000000     0.881430000000     0.0381878  
H356     H      0.177900000000     0.408260000000     0.794320000000     0.0930155  
H357     H      0.151400000000     0.394790000000     0.769000000000     0.0913356  
H358     H      0.236990000000     0.226240000000     0.682680000000     0.0406023  
H359     H      0.177880000000     0.226520000000     0.782680000000     0.0344168  
H360     H      0.247400000000     0.290440000000     0.774110000000     0.0444183  
H361     H      0.264130000000     0.165600000000     0.722850000000     0.0378069  
H362     H      0.165370000000     0.255540000000     0.775180000000     0.0401185  
H363     H      0.292340000000     0.244060000000     0.718300000000     0.0341014  
H364     H      0.230090000000     0.172560000000     0.717020000000     0.0340896  
H365     H      0.315110000000     0.229420000000     0.680230000000     0.0389642  
H366     H      0.216410000000     0.248050000000     0.704960000000     0.0449171  
H367     H      0.164910000000     0.251980000000     0.822080000000     0.0362708  
H368     H      0.252100000000     0.214140000000     0.790010000000     0.0439633  
H369     H      0.196020000000     0.241210000000     0.821380000000     0.0342609  
H370     H      0.253070000000     0.157910000000     0.678240000000     0.0393562  
H371     H      0.225560000000     0.310670000000     0.773590000000     0.0205248  
H372     H      0.277420000000     0.230440000000     0.676910000000     0.0365776  
H373     H      0.241540000000     0.189440000000     0.676210000000     0.0366217  
H374     H      0.231160000000     0.235490000000     0.812300000000     0.0396599  
H375     H      0.235830000000     0.275750000000     0.816000000000     0.0455681  
H376     H      0.308670000000     0.216960000000     0.724200000000     0.0352137  
H377     H      0.236390000000     0.331460000000     0.825600000000     0.093834   
H378     H      0.224480000000     0.305360000000     0.851670000000     0.0888958  
H379     H      0.520020000000     0.506420000000     0.786450000000     0.040226   
H380     H      0.506010000000     0.456140000000     0.663800000000     0.0343252  
H381     H      0.477350000000     0.504040000000     0.674060000000     0.0446914  
H382     H      0.490750000000     0.439000000000     0.875980000000     0.0361827  
H383     H      0.523220000000     0.481970000000     0.613850000000     0.0375342  
H384     H      0.458270000000     0.475470000000     0.825650000000     0.0338445  
H385     H      0.515170000000     0.457910000000     0.823380000000     0.0341978  
H386     H      0.462060000000     0.480450000000     0.891200000000     0.0403175  
H387     H      0.523930000000     0.513080000000     0.722200000000     0.0442475  
H388     H      0.498080000000     0.454050000000     0.597510000000     0.038718   
H389     H      0.455770000000     0.435420000000     0.770470000000     0.0436869  
H390     H      0.475050000000     0.446490000000     0.650460000000     0.0346312  
H391     H      0.520320000000     0.463440000000     0.889190000000     0.0400828  
H392     H      0.500180000000     0.518890000000     0.621410000000     0.0197834  
H393     H      0.488660000000     0.498580000000     0.839180000000     0.0380895  
H394     H      0.522410000000     0.488200000000     0.837970000000     0.0370204  
H395     H      0.458740000000     0.442770000000     0.706400000000     0.0396751  
H396     H      0.458730000000     0.473240000000     0.657710000000     0.0459029  
H397     H      0.453560000000     0.449870000000     0.876940000000     0.036815   
H398     H      0.469070000000     0.515230000000     0.587090000000     0.0933767  
H399     H      0.452090000000     0.483450000000     0.590200000000     0.0895301  
H400     H      0.558940000000     0.554370000000     0.281940000000     0.0403372  
H401     H      0.558820000000     0.518970000000     0.161490000000     0.0343964  
H402     H      0.512300000000     0.549780000000     0.160930000000     0.0463826  
H403     H      0.504960000000     0.478160000000     0.361930000000     0.0393412  
H404     H      0.568580000000     0.545910000000     0.109900000000     0.0360978  
H405     H      0.510110000000     0.544840000000     0.319650000000     0.0343297  
H406     H      0.532780000000     0.491780000000     0.312890000000     0.033951   
H407     H      0.514150000000     0.544910000000     0.386700000000     0.039984   
H408     H      0.565840000000     0.562460000000     0.218090000000     0.0438589  
H409     H      0.555860000000     0.514410000000     0.096230000000     0.0401234  
H410     H      0.490220000000     0.488720000000     0.260090000000     0.0443163  
H411     H      0.527570000000     0.499920000000     0.146940000000     0.0386535  
H412     H      0.535310000000     0.491310000000     0.379700000000     0.0391754  
H413     H      0.539860000000     0.564790000000     0.110240000000     0.0172082  
H414     H      0.539750000000     0.551790000000     0.336070000000     0.0359111  
H415     H      0.552550000000     0.521460000000     0.332420000000     0.0368526  
H416     H      0.497740000000     0.496040000000     0.196340000000     0.0405052  
H417     H      0.499760000000     0.518330000000     0.146420000000     0.0458156  
H418     H      0.489030000000     0.517920000000     0.367890000000     0.0381309  
H419     H      0.509530000000     0.555880000000     0.066240000000     0.0943182  
H420     H      0.487850000000     0.530060000000     0.089830000000     0.0951917  
H421     H      0.810440000000     0.162640000000     0.868510000000     0.0403241  
H422     H      0.851350000000     0.167840000000     0.975190000000     0.0338917  
H423     H      0.834210000000     0.224530000000     0.987860000000     0.04501    
H424     H      0.881950000000     0.217190000000     0.778110000000     0.0374066  
H425     H      0.828900000000     0.157370000000     0.029250000000     0.0392265  
H426     H      0.812220000000     0.198900000000     0.816900000000     0.0343752  
H427     H      0.877550000000     0.196450000000     0.834190000000     0.0332284  
H428     H      0.812310000000     0.187750000000     0.752600000000     0.0406211  
H429     H      0.807830000000     0.161080000000     0.933140000000     0.0437485  
H430     H      0.860510000000     0.169760000000     0.040350000000     0.0378784  
H431     H      0.875420000000     0.234170000000     0.874400000000     0.0436332  
H432     H      0.874020000000     0.197880000000     0.990580000000     0.0365578  
H433     H      0.879390000000     0.187690000000     0.770700000000     0.0394209  
H434     H      0.819340000000     0.203880000000     0.041840000000     0.0174355  
H435     H      0.812210000000     0.170410000000     0.809910000000     0.0366708  
H436     H      0.850210000000     0.169170000000     0.819660000000     0.0378411  
H437     H      0.874140000000     0.231630000000     0.938790000000     0.0398325  
H438     H      0.864770000000     0.230160000000     0.995500000000     0.0454903  
H439     H      0.837140000000     0.217360000000     0.764960000000     0.0371409  
H440     H      0.842200000000     0.236410000000     0.077130000000     0.0930251  
H441     H      0.869940000000     0.238530000000     0.065550000000     0.0934328  
H442     H      0.822000000000     0.175450000000     0.389210000000     0.0398675  
H443     H      0.809310000000     0.119800000000     0.485220000000     0.0336106  
H444     H      0.883530000000     0.175180000000     0.494670000000     0.045254   
H445     H      0.849830000000     0.142320000000     0.273950000000     0.0395805  
H446     H      0.811740000000     0.137500000000     0.540680000000     0.0427974  
H447     H      0.854610000000     0.199860000000     0.341540000000     0.0339382  
H448     H      0.825820000000     0.123290000000     0.326060000000     0.0328548  
H449     H      0.844000000000     0.203460000000     0.277810000000     0.0404132  
H450     H      0.825180000000     0.170680000000     0.452700000000     0.0448486  
H451     H      0.813470000000     0.110660000000     0.551630000000     0.0307574  
H452     H      0.862340000000     0.137640000000     0.369220000000     0.0428748  
H453     H      0.831540000000     0.110670000000     0.495430000000     0.0337946  
H454     H      0.818110000000     0.128100000000     0.261870000000     0.0378773  
H455     H      0.885960000000     0.166800000000     0.551670000000     0.0229805  
H456     H      0.822930000000     0.180210000000     0.329080000000     0.035893   
H457     H      0.806920000000     0.137020000000     0.319740000000     0.0377875  
H458     H      0.862740000000     0.130270000000     0.432660000000     0.0402267  
H459     H      0.878560000000     0.145230000000     0.484970000000     0.0445876  
H460     H      0.869160000000     0.198220000000     0.284150000000     0.0376827  
H461     H      0.878230000000     0.128550000000     0.572920000000     0.0904325  
H462     H      0.860530000000     0.112970000000     0.537270000000     0.0846098  
H463     H      0.120710000000     0.276960000000     0.594060000000     0.0435022  
H464     H      0.124410000000     0.335860000000     0.470220000000     0.0338177  
H465     H      0.154650000000     0.289760000000     0.489210000000     0.0457905  
H466     H      0.180630000000     0.321230000000     0.683030000000     0.0378977  
H467     H      0.115110000000     0.310010000000     0.418420000000     0.0349193  
H468     H      0.107130000000     0.297300000000     0.643180000000     0.0332285  
H469     H      0.183840000000     0.342620000000     0.629280000000     0.0336408  
H470     H      0.112330000000     0.304960000000     0.708850000000     0.0379569  
H471     H      0.115670000000     0.274240000000     0.529510000000     0.0435904  
H472     H      0.137740000000     0.340750000000     0.406820000000     0.0399694  
H473     H      0.160440000000     0.356240000000     0.586470000000     0.0394233  
H474     H      0.156940000000     0.347820000000     0.464540000000     0.037223   
H475     H      0.188360000000     0.351880000000     0.694910000000     0.0400419  
H476     H      0.135070000000     0.278400000000     0.431900000000     0.0171754  
H477     H      0.122240000000     0.329450000000     0.654540000000     0.0375466  
H478     H      0.165720000000     0.355350000000     0.646370000000     0.0355147  
H479     H      0.157740000000     0.353560000000     0.522840000000     0.0394908  
H480     H      0.174140000000     0.321330000000     0.476380000000     0.0480067  
H481     H      0.125320000000     0.287270000000     0.691880000000     0.0394931  
H482     H      0.168180000000     0.278950000000     0.405950000000     0.0936672  
H483     H      0.188690000000     0.309450000000     0.417460000000     0.0926298  
H484     H      0.155010000000     0.333290000000     0.040500000000     0.0406535  
H485     H      0.199490000000     0.304620000000     0.139950000000     0.0348081  
H486     H      0.207590000000     0.375700000000     0.141990000000     0.0435005  
H487     H      0.169620000000     0.296590000000     0.935040000000     0.0365943  
H488     H      0.186940000000     0.301750000000     0.197300000000     0.0414958  
H489     H      0.212130000000     0.369200000000     0.982700000000     0.0335346  
H490     H      0.154280000000     0.295590000000     0.993330000000     0.0342036  
H491     H      0.200330000000     0.369460000000     0.919160000000     0.0387212  
H492     H      0.161340000000     0.335520000000     0.104710000000     0.0452358  
H493     H      0.219100000000     0.316470000000     0.205220000000     0.0329613  
H494     H      0.224680000000     0.337180000000     0.024990000000     0.0434903  
H495     H      0.228850000000     0.331460000000     0.147910000000     0.0322553  
H496     H      0.141470000000     0.296760000000     0.929920000000     0.040244   
H497     H      0.199520000000     0.370690000000     0.200460000000     0.0240098  
H498     H      0.180760000000     0.361770000000     0.977080000000     0.0377949  
H499     H      0.147710000000     0.319850000000     0.983300000000     0.0361784  
H500     H      0.231930000000     0.341540000000     0.088930000000     0.0394818  
H501     H      0.233570000000     0.371430000000     0.144460000000     0.0444277  
H502     H      0.212380000000     0.349450000000     0.928270000000     0.0376666  
H503     H      0.234680000000     0.385820000000     0.235130000000     0.0927285  
H504     H      0.248570000000     0.375060000000     0.207090000000     0.0850676  
H505     H      0.000050000000     0.252640000000     0.152600000000     0.0403047  
H506     H      0.066370000000     0.312060000000     0.240250000000     0.0343594  
H507     H      0.058340000000     0.241000000000     0.240300000000     0.0455416  
H508     H      0.920280000000     0.240900000000     0.208860000000     0.0391954  
H509     H      0.106840000000     0.318770000000     0.230140000000     0.0383841  
H510     H      0.958920000000     0.199860000000     0.187070000000     0.0343307  
H511     H      0.962160000000     0.268610000000     0.196750000000     0.0339535  
H512     H      0.918170000000     0.183430000000     0.154400000000     0.03899    
H513     H      0.043310000000     0.270360000000     0.169600000000     0.0442497  
H514     H      0.105280000000     0.328290000000     0.274320000000     0.0401259  
H515     H      0.979350000000     0.241350000000     0.262790000000     0.0447299  
H516     H      0.063230000000     0.296250000000     0.281530000000     0.0363684  
H517     H      0.921130000000     0.250450000000     0.163990000000     0.0377137  
H518     H      0.101260000000     0.266780000000     0.233750000000     0.0179097  
H519     H      0.959220000000     0.216820000000     0.148350000000     0.0353503  
H520     H      0.961110000000     0.255610000000     0.153830000000     0.035502   
H521     H      0.022460000000     0.259500000000     0.279850000000     0.0400075  
H522     H      0.057360000000     0.255060000000     0.281290000000     0.0460308  
H523     H      0.917810000000     0.187510000000     0.201230000000     0.0396364  
H524     H      0.111110000000     0.249970000000     0.279600000000     0.09338    
H525     H      0.097460000000     0.259170000000     0.311770000000     0.0934912  
H526     H      0.304600000000     0.384370000000     0.456670000000     0.0440458  
H527     H      0.384590000000     0.461660000000     0.445770000000     0.034239   
H528     H      0.391770000000     0.398320000000     0.439220000000     0.044763   
H529     H      0.246360000000     0.382920000000     0.394440000000     0.0374041  
H530     H      0.427180000000     0.479250000000     0.437290000000     0.0386322  
H531     H      0.287720000000     0.345300000000     0.382100000000     0.0341408  
H532     H      0.288750000000     0.413240000000     0.387820000000     0.0339238  
H533     H      0.249230000000     0.327720000000     0.345040000000     0.0390325  
H534     H      0.347140000000     0.405910000000     0.477600000000     0.0396595  
H535     H      0.423090000000     0.482070000000     0.483540000000     0.0374874  
H536     H      0.329810000000     0.401430000000     0.348680000000     0.040246   
H537     H      0.384290000000     0.445240000000     0.485120000000     0.0348055  
H538     H      0.250330000000     0.395510000000     0.350710000000     0.0393091  
H539     H      0.433090000000     0.428470000000     0.436020000000     0.0194126  
H540     H      0.290500000000     0.362330000000     0.342200000000     0.0362212  
H541     H      0.291050000000     0.401280000000     0.345470000000     0.0360033  
H542     H      0.372440000000     0.423210000000     0.369610000000     0.0444557  
H543     H      0.386730000000     0.408690000000     0.481020000000     0.0455472  
H544     H      0.245600000000     0.333810000000     0.390360000000     0.0364224  
H545     H      0.446260000000     0.416730000000     0.483800000000     0.0932233  
H546     H      0.430200000000     0.423960000000     0.514150000000     0.0900692  
H547     H      0.572780000000     0.032780000000     0.704440000000     0.0403603  
H548     H      0.558000000000     0.073410000000     0.822210000000     0.0346847  
H549     H      0.527840000000     0.996170000000     0.816370000000     0.0458833  
H550     H      0.545530000000     0.067970000000     0.607680000000     0.0386836  
H551     H      0.569030000000     0.060140000000     0.876150000000     0.0355159  
H552     H      0.511520000000     0.998090000000     0.666590000000     0.034071   
H553     H      0.568660000000     0.072170000000     0.659660000000     0.0342797  
H554     H      0.514220000000     0.993640000000     0.600340000000     0.038986   
H555     H      0.575660000000     0.033050000000     0.769330000000     0.043951   
H556     H      0.548040000000     0.070650000000     0.886190000000     0.0406286  
H557     H      0.507640000000     0.038670000000     0.712310000000     0.0443647  
H558     H      0.525760000000     0.053730000000     0.831040000000     0.0380086  
H559     H      0.571640000000     0.066220000000     0.593310000000     0.0398556  
H560     H      0.548670000000     0.009220000000     0.872800000000     0.0171827  
H561     H      0.541440000000     0.005500000000     0.650930000000     0.036775   
H562     H      0.573900000000     0.047420000000     0.647280000000     0.0355384  
H563     H      0.509630000000     0.037420000000     0.776960000000     0.0402489  
H564     H      0.508000000000     0.008370000000     0.826430000000     0.0464777  
H565     H      0.501850000000     0.012590000000     0.613930000000     0.0394678  
H566     H      0.516530000000     0.979120000000     0.904450000000     0.0941929  
H567     H      0.495190000000     0.986860000000     0.888390000000     0.0932542  
H568     H      0.533360000000     0.028800000000     0.259160000000     0.0402637  
H569     H      0.470120000000     0.990140000000     0.162900000000     0.0340737  
H570     H      0.509670000000     0.067150000000     0.148070000000     0.0439921  
H571     H      0.477990000000     0.011260000000     0.370720000000     0.0384711  
H572     H      0.486850000000     0.994640000000     0.106440000000     0.0427557  
H573     H      0.534620000000     0.069690000000     0.308700000000     0.0340575  
H574     H      0.479030000000     0.994800000000     0.313740000000     0.0339173  
H575     H      0.547860000000     0.066500000000     0.370940000000     0.039601   
H576     H      0.527710000000     0.027960000000     0.194750000000     0.0445862  
H577     H      0.456590000000     0.988770000000     0.096910000000     0.0313243  
H578     H      0.468290000000     0.034050000000     0.274240000000     0.0438951  
H579     H      0.453410000000     0.005650000000     0.152180000000     0.033294   
H580     H      0.491600000000     0.992270000000     0.376280000000     0.0392431  
H581     H      0.499080000000     0.064740000000     0.091110000000     0.0220465  
H582     H      0.542610000000     0.046070000000     0.315200000000     0.035987   
H583     H      0.510760000000     0.003250000000     0.318220000000     0.0369622  
H584     H      0.461780000000     0.031610000000     0.209920000000     0.0398781  
H585     H      0.478110000000     0.054410000000     0.158940000000     0.04468    
H586     H      0.518940000000     0.065290000000     0.367580000000     0.0360525  
H587     H      0.458610000000     0.047100000000     0.071070000000     0.0900182  
H588     H      0.446930000000     0.029490000000     0.108290000000     0.0843732  
H589     H      0.711250000000     0.121940000000     0.058690000000     0.0410038  
H590     H      0.621300000000     0.045030000000     0.053570000000     0.0343778  
H591     H      0.627040000000     0.115080000000     0.057000000000     0.045556   
H592     H      0.744250000000     0.108720000000     0.173880000000     0.03658    
H593     H      0.597590000000     0.045140000000     0.003940000000     0.0370306  
H594     H      0.719660000000     0.155740000000     0.135640000000     0.0342996  
H595     H      0.719180000000     0.088340000000     0.122470000000     0.0341915  
H596     H      0.764180000000     0.177040000000     0.151630000000     0.040126   
H597     H      0.672490000000     0.104590000000     0.025810000000     0.0443317  
H598     H      0.576920000000     0.025790000000     0.037540000000     0.0403382  
H599     H      0.671240000000     0.097370000000     0.156870000000     0.0440082  
H600     H      0.603200000000     0.050970000000     0.084700000000     0.0364165  
H601     H      0.763390000000     0.108610000000     0.138790000000     0.0409083  
H602     H      0.600760000000     0.096030000000     0.007730000000     0.0179704  
H603     H      0.738560000000     0.153550000000     0.101580000000     0.0379827  
H604     H      0.738410000000     0.113910000000     0.093970000000     0.0381621  
H605     H      0.632530000000     0.080350000000     0.124140000000     0.0399191  
H606     H      0.607290000000     0.091370000000     0.087480000000     0.0465427  
H607     H      0.744840000000     0.153470000000     0.182500000000     0.0371333  
H608     H      0.571570000000     0.104320000000     0.027030000000     0.0934381  
H609     H      0.564550000000     0.086080000000     0.064940000000     0.0935329  
H610     H      0.201190000000     0.894540000000     0.511000000000     0.0404827  
H611     H      0.172480000000     0.901040000000     0.636970000000     0.0340683  
H612     H      0.212400000000     0.863060000000     0.634140000000     0.046275   
H613     H      0.129390000000     0.825730000000     0.440190000000     0.0382591  
H614     H      0.204400000000     0.918180000000     0.682430000000     0.0360656  
H615     H      0.196600000000     0.841980000000     0.490410000000     0.0343516  
H616     H      0.139200000000     0.858440000000     0.482190000000     0.0340074  
H617     H      0.196620000000     0.837330000000     0.424540000000     0.0405913  
H618     H      0.212740000000     0.908620000000     0.572360000000     0.0438845  
H619     H      0.174580000000     0.902750000000     0.702740000000     0.0378339  
H620     H      0.143360000000     0.824710000000     0.549080000000     0.0440154  
H621     H      0.158780000000     0.870800000000     0.656640000000     0.037533   
H622     H      0.138770000000     0.853670000000     0.415860000000     0.0392226  
H623     H      0.228920000000     0.894730000000     0.679700000000     0.017189   
H624     H      0.201570000000     0.868840000000     0.466010000000     0.0371313  
H625     H      0.168300000000     0.878460000000     0.461510000000     0.037343   
H626     H      0.154020000000     0.839270000000     0.610330000000     0.0401978  
H627     H      0.182710000000     0.848120000000     0.655210000000     0.0459439  
H628     H      0.169250000000     0.814520000000     0.445930000000     0.0370741  
H629     H      0.228440000000     0.869260000000     0.727160000000     0.0939788  
H630     H      0.202980000000     0.843570000000     0.708920000000     0.0951237  
H631     H      0.137680000000     0.852410000000     0.039000000000     0.0401154  
H632     H      0.125880000000     0.806210000000     0.132520000000     0.0323709  
H633     H      0.203180000000     0.841410000000     0.142370000000     0.0433637  
H634     H      0.176080000000     0.829700000000     0.925210000000     0.040468   
H635     H      0.132720000000     0.823330000000     0.189620000000     0.0411258  
H636     H      0.171190000000     0.883860000000     0.992660000000     0.0338601  
H637     H      0.152180000000     0.809640000000     0.976040000000     0.0329993  
H638     H      0.158350000000     0.884440000000     0.927240000000     0.0383924  
H639     H      0.139190000000     0.844710000000     0.101990000000     0.0422767  
H640     H      0.124360000000     0.791960000000     0.197100000000     0.0307216  
H641     H      0.192560000000     0.832060000000     0.018570000000     0.0436661  
H642     H      0.140850000000     0.788800000000     0.141110000000     0.0344926  
H643     H      0.144810000000     0.814200000000     0.911080000000     0.0369579  
H644     H      0.200730000000     0.834490000000     0.200720000000     0.021581   
H645     H      0.140720000000     0.861060000000     0.979150000000     0.0344514  
H646     H      0.130600000000     0.819950000000     0.968070000000     0.0367987  
H647     H      0.192690000000     0.822240000000     0.080240000000     0.0391085  
H648     H      0.185760000000     0.808900000000     0.134140000000     0.0440933  
H649     H      0.187670000000     0.887730000000     0.935770000000     0.0369676  
H650     H      0.187410000000     0.794910000000     0.222070000000     0.092474   
H651     H      0.167360000000     0.781100000000     0.187740000000     0.0843606  
H652     H      0.383450000000     0.971860000000     0.859080000000     0.0402931  
H653     H      0.296530000000     0.896900000000     0.855970000000     0.0341331  
H654     H      0.296010000000     0.963890000000     0.863750000000     0.0458141  
H655     H      0.416350000000     0.963520000000     0.980180000000     0.0376995  
H656     H      0.270570000000     0.896420000000     0.808560000000     0.0359435  
H657     H      0.396190000000     0.010900000000     0.925230000000     0.0342184  
H658     H      0.390680000000     0.940840000000     0.931020000000     0.0338142  
H659     H      0.441090000000     0.031050000000     0.940510000000     0.0399111  
H660     H      0.343840000000     0.953610000000     0.828200000000     0.0440672  
H661     H      0.252210000000     0.874510000000     0.841760000000     0.0400585  
H662     H      0.346030000000     0.952680000000     0.959630000000     0.0441512  
H663     H      0.278050000000     0.900430000000     0.889350000000     0.0370711  
H664     H      0.435320000000     0.960880000000     0.947080000000     0.0386079  
H665     H      0.268590000000     0.942880000000     0.815960000000     0.0171042  
H666     H      0.413990000000     0.003430000000     0.895650000000     0.0362336  
H667     H      0.410850000000     0.963150000000     0.899080000000     0.0363252  
H668     H      0.306500000000     0.933860000000     0.928890000000     0.0401152  
H669     H      0.278620000000     0.939460000000     0.894720000000     0.0459232  
H670     H      0.420650000000     0.013600000000     0.975680000000     0.0367692  
H671     H      0.237690000000     0.947830000000     0.838020000000     0.0937876  
H672     H      0.234930000000     0.931850000000     0.877370000000     0.0936013  
H673     H      0.857690000000     0.691800000000     0.920500000000     0.0406514  
H674     H      0.816740000000     0.651170000000     0.809940000000     0.0338393  
H675     H      0.832230000000     0.724760000000     0.801940000000     0.0445501  
H676     H      0.789470000000     0.673120000000     0.015380000000     0.03711    
H677     H      0.841050000000     0.664300000000     0.758370000000     0.0398262  
H678     H      0.849780000000     0.729760000000     0.961870000000     0.0342963  
H679     H      0.795090000000     0.654240000000     0.962620000000     0.0337557  
H680     H      0.855750000000     0.728500000000     0.027350000000     0.0397356  
H681     H      0.860590000000     0.691480000000     0.855840000000     0.0441787  
H682     H      0.810220000000     0.647070000000     0.742900000000     0.0351484  
H683     H      0.787720000000     0.688160000000     0.911480000000     0.043689   
H684     H      0.794380000000     0.658410000000     0.792940000000     0.0352435  
H685     H      0.799940000000     0.652240000000     0.028000000000     0.0398654  
H686     H      0.848910000000     0.723550000000     0.748110000000     0.0189567  
H687     H      0.858200000000     0.707250000000     0.974970000000     0.0378131  
H688     H      0.826010000000     0.662830000000     0.975050000000     0.0385783  
H689     H      0.789620000000     0.685650000000     0.847000000000     0.039713   
H690     H      0.802380000000     0.699540000000     0.791780000000     0.0453335  
H691     H      0.825800000000     0.722650000000     0.015240000000     0.0353309  
H692     H      0.824110000000     0.729270000000     0.711320000000     0.0927568  
H693     H      0.798490000000     0.701020000000     0.720200000000     0.0907596  
H694     H      0.836160000000     0.684020000000     0.414170000000     0.0408547  
H695     H      0.898230000000     0.715810000000     0.299910000000     0.0347456  
H696     H      0.840300000000     0.642320000000     0.306810000000     0.0441332  
H697     H      0.897250000000     0.719610000000     0.511200000000     0.0367306  
H698     H      0.881000000000     0.715180000000     0.245700000000     0.039619   
H699     H      0.860880000000     0.649020000000     0.462530000000     0.0339323  
H700     H      0.880960000000     0.724300000000     0.455610000000     0.0344762  
H701     H      0.852590000000     0.648940000000     0.527410000000     0.0395437  
H702     H      0.834460000000     0.682160000000     0.349330000000     0.0450008  
H703     H      0.902140000000     0.705550000000     0.233170000000     0.0359127  
H704     H      0.904100000000     0.683070000000     0.412130000000     0.0438387  
H705     H      0.902810000000     0.690430000000     0.289350000000     0.0331194  
H706     H      0.872230000000     0.724700000000     0.520370000000     0.0408194  
H707     H      0.830160000000     0.649780000000     0.251660000000     0.022884   
H708     H      0.838390000000     0.658030000000     0.471960000000     0.038293   
H709     H      0.850080000000     0.701910000000     0.468240000000     0.0374741  
H710     H      0.901410000000     0.679240000000     0.347510000000     0.0395835  
H711     H      0.870720000000     0.649540000000     0.295120000000     0.045126   
H712     H      0.884140000000     0.668790000000     0.515570000000     0.0377573  
H713     H      0.839610000000     0.627330000000     0.213230000000     0.0941947  
H714     H      0.869020000000     0.639120000000     0.228780000000     0.0868797  
H715     H      0.645240000000     0.588440000000     0.607370000000     0.0443961  
H716     H      0.729950000000     0.662420000000     0.574800000000     0.034308   
H717     H      0.725410000000     0.593290000000     0.587030000000     0.0451748  
H718     H      0.580150000000     0.570320000000     0.553390000000     0.0392526  
H719     H      0.770850000000     0.671330000000     0.563960000000     0.0382972  
H720     H      0.628580000000     0.540270000000     0.539990000000     0.0342765  
H721     H      0.619980000000     0.603030000000     0.537510000000     0.0341106  
H722     H      0.587490000000     0.515570000000     0.509580000000     0.040003   
H723     H      0.688920000000     0.612540000000     0.621790000000     0.0397088  
H724     H      0.770350000000     0.682510000000     0.607350000000     0.0381039  
H725     H      0.662960000000     0.591190000000     0.496550000000     0.0404773  
H726     H      0.729050000000     0.650190000000     0.618350000000     0.0354352  
H727     H      0.578640000000     0.577630000000     0.507890000000     0.0392939  
H728     H      0.767610000000     0.618620000000     0.577010000000     0.0180885  
H729     H      0.625590000000     0.552540000000     0.498260000000     0.0361724  
H730     H      0.620670000000     0.588310000000     0.496880000000     0.0365767  
H731     H      0.706820000000     0.614610000000     0.511070000000     0.0442124  
H732     H      0.725130000000     0.610340000000     0.625070000000     0.0458909  
H733     H      0.586450000000     0.523940000000     0.554610000000     0.0380227  
H734     H      0.779430000000     0.607250000000     0.626640000000     0.0927228  
H735     H      0.768070000000     0.620830000000     0.655480000000     0.0921569  
H736     H      0.972370000000     0.753540000000     0.753140000000     0.0406803  
H737     H      0.063230000000     0.769490000000     0.759240000000     0.0341735  
H738     H      0.055570000000     0.832690000000     0.754730000000     0.0455502  
H739     H      0.939090000000     0.707360000000     0.637810000000     0.0375082  
H740     H      0.086780000000     0.795140000000     0.808150000000     0.0364973  
H741     H      0.965260000000     0.780290000000     0.676600000000     0.0342356  
H742     H      0.963260000000     0.712200000000     0.690000000000     0.0341481  
H743     H      0.921110000000     0.758190000000     0.658870000000     0.0404774  
H744     H      0.011080000000     0.775880000000     0.786010000000     0.0440809  
H745     H      0.107160000000     0.795190000000     0.775130000000     0.0403829  
H746     H      0.012500000000     0.770020000000     0.654990000000     0.0441064  
H747     H      0.080660000000     0.793300000000     0.727280000000     0.0364359  
H748     H      0.918750000000     0.689510000000     0.672910000000     0.0403682  
H749     H      0.082570000000     0.840240000000     0.803710000000     0.0177288  
H750     H      0.945300000000     0.758810000000     0.709570000000     0.0377138  
H751     H      0.944180000000     0.719280000000     0.717440000000     0.0372196  
H752     H      0.051120000000     0.792650000000     0.687680000000     0.039757   
H753     H      0.075430000000     0.829290000000     0.723860000000     0.045766   
H754     H      0.940810000000     0.754420000000     0.628350000000     0.0374477  
H755     H      0.110970000000     0.878520000000     0.784750000000     0.0933827  
H756     H      0.116720000000     0.868260000000     0.744780000000     0.0923406  
N1       N      0.821020000000     0.098410000000     0.692780000000    -0.179633   
N2       N      0.799890000000     0.048050000000     0.711430000000    -0.110839   
N3       N      0.751040000000     0.954420000000     0.779540000000    -0.113846   
N4       N      0.723320000000     0.903820000000     0.795530000000    -0.167595   
N5       N      0.859960000000     0.105920000000     0.718950000000    -0.19791    
N6       N      0.943920000000     0.418120000000     0.477890000000    -0.179556   
N7       N      0.925620000000     0.375910000000     0.517880000000    -0.106611   
N8       N      0.889790000000     0.285640000000     0.597260000000    -0.11279    
N9       N      0.872430000000     0.237070000000     0.621800000000    -0.167521   
N10      N      0.902190000000     0.403150000000     0.459430000000    -0.197937   
N11      N      0.128640000000     0.757180000000     0.327850000000    -0.179752   
N12      N      0.106660000000     0.709480000000     0.356510000000    -0.110077   
N13      N      0.055180000000     0.607380000000     0.390880000000    -0.113642   
N14      N      0.027840000000     0.560230000000     0.420970000000    -0.167816   
N15      N      0.089180000000     0.747670000000     0.302150000000    -0.197813   
N16      N      0.547100000000     0.566890000000     0.946870000000    -0.179771   
N17      N      0.572270000000     0.616400000000     0.923630000000    -0.110575   
N18      N      0.617470000000     0.707340000000     0.848160000000    -0.113902   
N19      N      0.644100000000     0.757410000000     0.828670000000    -0.167637   
N20      N      0.579780000000     0.561240000000     0.921070000000    -0.197777   
N21      N      0.198200000000     0.903870000000     0.292240000000    -0.179475   
N22      N      0.218880000000     0.953450000000     0.268380000000    -0.1112     
N23      N      0.258910000000     0.038420000000     0.179730000000    -0.113922   
N24      N      0.285420000000     0.087230000000     0.154470000000    -0.167632   
N25      N      0.238830000000     0.907240000000     0.283640000000    -0.198266   
N26      N      0.365780000000     0.233690000000     0.120880000000    -0.179439   
N27      N      0.393480000000     0.282230000000     0.095350000000    -0.11021    
N28      N      0.450020000000     0.385500000000     0.069480000000    -0.113825   
N29      N      0.475190000000     0.433000000000     0.039400000000    -0.16758    
N30      N      0.334420000000     0.243060000000     0.141350000000    -0.197836   
N31      N      0.691280000000     0.841480000000     0.411340000000    -0.180608   
N32      N      0.693410000000     0.828520000000     0.482780000000    -0.110337   
N33      N      0.680760000000     0.812220000000     0.632740000000    -0.11313    
N34      N      0.680430000000     0.817340000000     0.707050000000    -0.167738   
N35      N      0.708450000000     0.884560000000     0.429970000000    -0.198513   
N36      N      0.680600000000     0.874820000000     0.208020000000    -0.178605   
N37      N      0.684470000000     0.870660000000     0.137150000000    -0.108186   
N38      N      0.689870000000     0.859780000000     0.987700000000    -0.113372   
N39      N      0.686530000000     0.845070000000     0.916560000000    -0.167251   
N40      N      0.639270000000     0.867430000000     0.201320000000    -0.198449   
N41      N      0.812260000000     0.720390000000     0.169480000000    -0.179312   
N42      N      0.789130000000     0.743500000000     0.203950000000    -0.110462   
N43      N      0.739930000000     0.795730000000     0.241670000000    -0.11345    
N44      N      0.718190000000     0.820730000000     0.273300000000    -0.167216   
N45      N      0.843690000000     0.760960000000     0.147380000000    -0.197636   
N46      N      0.653440000000     0.895610000000     0.345110000000    -0.180232   
N47      N      0.632650000000     0.924370000000     0.368040000000    -0.110956   
N48      N      0.594740000000     0.974670000000     0.449020000000    -0.113907   
N49      N      0.568710000000     0.998100000000     0.471250000000    -0.167332   
N50      N      0.616300000000     0.858530000000     0.366190000000    -0.197797   
N51      N      0.003060000000     0.530580000000     0.850310000000    -0.17906    
N52      N      0.006580000000     0.528580000000     0.778140000000    -0.108541   
N53      N      0.007030000000     0.523330000000     0.626960000000    -0.113397   
N54      N      0.998820000000     0.509420000000     0.554980000000    -0.167024   
N55      N      0.961590000000     0.523230000000     0.844990000000    -0.198657   
N56      N      0.975750000000     0.473070000000     0.347910000000    -0.180651   
N57      N      0.977660000000     0.468110000000     0.273420000000    -0.110644   
N58      N      0.002870000000     0.480930000000     0.125870000000    -0.113231   
N59      N      0.008400000000     0.492020000000     0.052760000000    -0.167755   
N60      N      0.962900000000     0.503900000000     0.337970000000    -0.198683   
N61      N      0.971980000000     0.548680000000     0.984010000000    -0.179906   
N62      N      0.948880000000     0.571810000000     0.017910000000    -0.110428   
N63      N      0.899260000000     0.623140000000     0.058270000000    -0.113682   
N64      N      0.877930000000     0.647900000000     0.091920000000    -0.167752   
N65      N      0.004600000000     0.589200000000     0.964270000000    -0.197688   
N66      N      0.350450000000     0.161870000000     0.736370000000    -0.180391   
N67      N      0.351690000000     0.155020000000     0.810570000000    -0.110745   
N68      N      0.330270000000     0.142620000000     0.959290000000    -0.113182   
N69      N      0.326180000000     0.147190000000     0.033050000000    -0.167489   
N70      N      0.364420000000     0.205850000000     0.747210000000    -0.198857   
N71      N      0.305620000000     0.171550000000     0.539560000000    -0.180618   
N72      N      0.303120000000     0.173830000000     0.464680000000    -0.110701   
N73      N      0.322310000000     0.179980000000     0.315560000000    -0.113318   
N74      N      0.325170000000     0.173800000000     0.242000000000    -0.167802   
N75      N      0.324010000000     0.216970000000     0.542350000000    -0.198901   
N76      N      0.487280000000     0.063250000000     0.500560000000    -0.179521   
N77      N      0.460600000000     0.084600000000     0.527380000000    -0.110101   
N78      N      0.399040000000     0.124610000000     0.559290000000    -0.113794   
N79      N      0.370310000000     0.142070000000     0.591590000000    -0.167727   
N80      N      0.514630000000     0.101880000000     0.470080000000    -0.197717   
N81      N      0.130210000000     0.369840000000     0.823280000000    -0.179487   
N82      N      0.109800000000     0.397240000000     0.849930000000    -0.109869   
N83      N      0.062270000000     0.451560000000     0.884910000000    -0.113471   
N84      N      0.039190000000     0.475420000000     0.916010000000    -0.167271   
N85      N      0.160450000000     0.406040000000     0.790730000000    -0.197868   
N86      N      0.193690000000     0.286110000000     0.802250000000    -0.179391   
N87      N      0.212180000000     0.258460000000     0.771970000000    -0.109346   
N88      N      0.260930000000     0.208400000000     0.723010000000    -0.113705   
N89      N      0.287630000000     0.191130000000     0.684620000000    -0.168199   
N90      N      0.233620000000     0.313660000000     0.828090000000    -0.198429   
N91      N      0.493010000000     0.485470000000     0.597220000000    -0.179384   
N92      N      0.495250000000     0.483010000000     0.671620000000    -0.110215   
N93      N      0.485360000000     0.464810000000     0.820840000000    -0.114011   
N94      N      0.490110000000     0.470290000000     0.895210000000    -0.167753   
N95      N      0.463610000000     0.499910000000     0.603450000000    -0.198187   
N96      N      0.532320000000     0.530210000000     0.090160000000    -0.180172   
N97      N      0.536800000000     0.535830000000     0.165100000000    -0.111115   
N98      N      0.518330000000     0.516030000000     0.313050000000    -0.113283   
N99      N      0.517350000000     0.512370000000     0.387460000000    -0.166765   
N100     N      0.503990000000     0.547120000000     0.090850000000    -0.198623   
N101     N      0.845220000000     0.192610000000     0.053080000000    -0.179649   
N102     N      0.838850000000     0.193640000000     0.979270000000    -0.110082   
N103     N      0.846120000000     0.200560000000     0.828420000000    -0.113679   
N104     N      0.847970000000     0.190930000000     0.755950000000    -0.168003   
N105     N      0.852680000000     0.234920000000     0.056870000000    -0.197704   
N106     N      0.847020000000     0.144410000000     0.556700000000    -0.179091   
N107     N      0.846470000000     0.148980000000     0.485630000000    -0.108128   
N108     N      0.843640000000     0.161910000000     0.336100000000    -0.112701   
N109     N      0.837490000000     0.167490000000     0.263540000000    -0.167578   
N110     N      0.875210000000     0.129680000000     0.545900000000    -0.197479   
N111     N      0.150210000000     0.314330000000     0.410260000000    -0.180633   
N112     N      0.136450000000     0.310470000000     0.482670000000    -0.110492   
N113     N      0.145600000000     0.317060000000     0.633270000000    -0.112912   
N114     N      0.151560000000     0.323490000000     0.707040000000    -0.167771   
N115     N      0.173090000000     0.292950000000     0.424620000000    -0.198364   
N116     N      0.203660000000     0.339650000000     0.211130000000    -0.178624   
N117     N      0.199220000000     0.338490000000     0.139950000000    -0.108087   
N118     N      0.185700000000     0.331350000000     0.989960000000    -0.113456   
N119     N      0.174320000000     0.330740000000     0.917820000000    -0.16785    
N120     N      0.236480000000     0.381910000000     0.208740000000    -0.198197   
N121     N      0.107630000000     0.295270000000     0.269800000000    -0.179223   
N122     N      0.061750000000     0.276260000000     0.234750000000    -0.110602   
N123     N      0.960800000000     0.234050000000     0.197950000000    -0.113058   
N124     N      0.913160000000     0.213300000000     0.170940000000    -0.167004   
N125     N      0.096600000000     0.252890000000     0.285830000000    -0.197756   
N126     N      0.434170000000     0.455910000000     0.469850000000    -0.179481   
N127     N      0.388290000000     0.430230000000     0.436280000000    -0.11007    
N128     N      0.288700000000     0.379320000000     0.390360000000    -0.11366    
N129     N      0.243640000000     0.358410000000     0.353940000000    -0.167816   
N130     N      0.430000000000     0.416750000000     0.489080000000    -0.197984   
N131     N      0.533680000000     0.031270000000     0.889520000000    -0.180283   
N132     N      0.545250000000     0.035170000000     0.816170000000    -0.111093   
N133     N      0.537700000000     0.036360000000     0.665580000000    -0.11321    
N134     N      0.537290000000     0.032370000000     0.591570000000    -0.16729    
N135     N      0.511030000000     0.985950000000     0.883200000000    -0.198324   
N136     N      0.484730000000     0.025770000000     0.088700000000    -0.179146   
N137     N      0.491840000000     0.029240000000     0.159520000000    -0.108362   
N138     N      0.504260000000     0.033180000000     0.309520000000    -0.11354    
N139     N      0.516070000000     0.031200000000     0.380890000000    -0.167803   
N140     N      0.461200000000     0.045970000000     0.098240000000    -0.197458   
N141     N      0.578000000000     0.060280000000     0.028710000000    -0.179272   
N142     N      0.627280000000     0.081510000000     0.052000000000    -0.110626   
N143     N      0.716370000000     0.120410000000     0.130710000000    -0.113947   
N144     N      0.766200000000     0.143690000000     0.150580000000    -0.167621   
N145     N      0.578240000000     0.098010000000     0.047470000000    -0.197891   
N146     N      0.195700000000     0.884240000000     0.706570000000    -0.180961   
N147     N      0.193370000000     0.883080000000     0.631450000000    -0.111103   
N148     N      0.166260000000     0.848110000000     0.490240000000    -0.113668   
N149     N      0.164290000000     0.840350000000     0.416430000000    -0.167615   
N150     N      0.218140000000     0.860990000000     0.704360000000    -0.198828   
N151     N      0.161980000000     0.817940000000     0.205720000000    -0.179326   
N152     N      0.165180000000     0.827470000000     0.134770000000    -0.10731    
N153     N      0.165800000000     0.847780000000     0.986160000000    -0.112711   
N154     N      0.162140000000     0.853420000000     0.913440000000    -0.167181   
N155     N      0.184040000000     0.796300000000     0.195280000000    -0.198096   
N156     N      0.248790000000     0.907050000000     0.838010000000    -0.179503   
N157     N      0.299320000000     0.932090000000     0.856900000000    -0.110903   
N158     N      0.390410000000     0.974630000000     0.931130000000    -0.113649   
N159     N      0.439590000000     0.996890000000     0.953610000000    -0.167525   
N160     N      0.246660000000     0.943520000000     0.857660000000    -0.197797   
N161     N      0.827710000000     0.685890000000     0.734440000000    -0.179499   
N162     N      0.828540000000     0.689410000000     0.808280000000    -0.109601   
N163     N      0.820800000000     0.692540000000     0.958860000000    -0.113831   
N164     N      0.826280000000     0.690920000000     0.032840000000    -0.167985   
N165     N      0.814120000000     0.716140000000     0.730720000000    -0.197746   
N166     N      0.864610000000     0.677410000000     0.232210000000    -0.178965   
N167     N      0.866350000000     0.680510000000     0.305100000000    -0.108886   
N168     N      0.873500000000     0.687230000000     0.456060000000    -0.113701   
N169     N      0.865580000000     0.687850000000     0.529540000000    -0.167459   
N170     N      0.850940000000     0.633770000000     0.235530000000    -0.19879    
N171     N      0.774620000000     0.650650000000     0.605330000000    -0.179471   
N172     N      0.727150000000     0.627220000000     0.575120000000    -0.110332   
N173     N      0.625010000000     0.572180000000     0.544280000000    -0.113375   
N174     N      0.577310000000     0.543240000000     0.517290000000    -0.16701    
N175     N      0.765400000000     0.611120000000     0.631820000000    -0.197594   
N176     N      0.106110000000     0.828970000000     0.780720000000    -0.179358   
N177     N      0.056300000000     0.799360000000     0.759750000000    -0.110912   
N178     N      0.967360000000     0.747560000000     0.681000000000    -0.113741   
N179     N      0.918120000000     0.722390000000     0.658060000000    -0.167257   
N180     N      0.103740000000     0.865800000000     0.764020000000    -0.19789    
O1       O      0.883120000000     0.722550000000     0.641630000000    -0.398743   
O2       O      0.811120000000     0.686580000000     0.614640000000    -0.399231   
O3       O      0.838140000000     0.704330000000     0.679600000000    -0.402994   
O4       O      0.856740000000     0.705180000000     0.576670000000    -0.398986   
O5       O      0.854790000000     0.668980000000     0.583940000000    -0.397981   
O6       O      0.836050000000     0.668130000000     0.687090000000    -0.399893   
O7       O      0.809850000000     0.650770000000     0.621840000000    -0.403358   
O8       O      0.881620000000     0.686600000000     0.649240000000    -0.397851   
O9       O      0.211930000000     0.904680000000     0.824460000000    -0.40232    
O10      O      0.139750000000     0.864960000000     0.799680000000    -0.401875   
O11      O      0.168060000000     0.877560000000     0.864500000000    -0.399032   
O12      O      0.183810000000     0.892240000000     0.760020000000    -0.401479   
O13      O      0.189220000000     0.859930000000     0.755750000000    -0.404391   
O14      O      0.168860000000     0.842630000000     0.858310000000    -0.399065   
O15      O      0.143320000000     0.831770000000     0.792050000000    -0.40015    
O16      O      0.214560000000     0.870710000000     0.822090000000    -0.401085   
O17      O      0.476370000000     0.031170000000     0.967090000000    -0.399412   
O18      O      0.545840000000     0.062910000000     0.004490000000    -0.403426   
O19      O      0.523870000000     0.048530000000     0.935770000000    -0.400969   
O20      O      0.498890000000     0.045690000000     0.035540000000    -0.403093   
O21      O      0.494460000000     0.008380000000     0.042620000000    -0.39957    
O22      O      0.519600000000     0.011400000000     0.942940000000    -0.403981   
O23      O      0.542000000000     0.025970000000     0.011820000000    -0.398611   
O24      O      0.472460000000     0.994090000000     0.973990000000    -0.39988    
O25      O      0.211040000000     0.360990000000     0.331720000000    -0.399579   
O26      O      0.142820000000     0.329230000000     0.289470000000    -0.399762   
O27      O      0.162320000000     0.338100000000     0.359900000000    -0.39911    
O28      O      0.191550000000     0.352020000000     0.260850000000    -0.399776   
O29      O      0.188940000000     0.315250000000     0.260430000000    -0.402754   
O30      O      0.162200000000     0.302550000000     0.360110000000    -0.406653   
O31      O      0.140940000000     0.292900000000     0.290280000000    -0.401974   
O32      O      0.209920000000     0.324930000000     0.330180000000    -0.400432   
O33      O      0.803090000000     0.178900000000     0.160190000000    -0.397911   
O34      O      0.877390000000     0.214520000000     0.166200000000    -0.398087   
O35      O      0.841990000000     0.202990000000     0.110430000000    -0.40502    
O36      O      0.838770000000     0.190760000000     0.215930000000    -0.400713   
O37      O      0.835820000000     0.154300000000     0.206370000000    -0.397893   
O38      O      0.843350000000     0.168730000000     0.100730000000    -0.399063   
O39      O      0.876370000000     0.178750000000     0.158980000000    -0.399621   
O40      O      0.802650000000     0.143870000000     0.148590000000    -0.40027    
O41      O      0.539130000000     0.537850000000     0.505740000000    -0.397548   
O42      O      0.466960000000     0.493540000000     0.484450000000    -0.401724   
O43      O      0.496110000000     0.508370000000     0.547670000000    -0.400315   
O44      O      0.509430000000     0.522540000000     0.442440000000    -0.397062   
O45      O      0.516040000000     0.490910000000     0.437520000000    -0.398268   
O46      O      0.502170000000     0.476460000000     0.542310000000    -0.401486   
O47      O      0.472860000000     0.461550000000     0.478820000000    -0.400823   
O48      O      0.544970000000     0.505720000000     0.501310000000    -0.398625   
O49      O      0.128010000000     0.332140000000     0.822450000000    -0.400382   
O50      O      0.159580000000     0.289980000000     0.810010000000    -0.399797   
O51      O      0.150050000000     0.312280000000     0.869210000000    -0.398735   
O52      O      0.137680000000     0.309870000000     0.763340000000    -0.398564   
O53      O      0.174910000000     0.342460000000     0.756030000000    -0.401491   
O54      O      0.185500000000     0.347150000000     0.862130000000    -0.401751   
O55      O      0.196080000000     0.323850000000     0.804950000000    -0.403445   
O56      O      0.164090000000     0.365830000000     0.813380000000    -0.402904   
O57      O      0.292040000000     0.159630000000     0.661520000000    -0.39776    
O58      O      0.334510000000     0.134920000000     0.617690000000    -0.39992    
O59      O      0.325070000000     0.144480000000     0.688550000000    -0.399902   
O60      O      0.301900000000     0.149870000000     0.590360000000    -0.400246   
O61      O      0.332010000000     0.188750000000     0.586750000000    -0.403368   
O62      O      0.355630000000     0.183150000000     0.684460000000    -0.403336   
O63      O      0.365240000000     0.173520000000     0.613020000000    -0.399041   
O64      O      0.323140000000     0.198130000000     0.657890000000    -0.404303   
O65      O      0.004300000000     0.476300000000     0.930740000000    -0.398128   
O66      O      0.970610000000     0.512970000000     0.965960000000    -0.400921   
O67      O      0.985530000000     0.504830000000     0.898000000000    -0.401331   
O68      O      0.989370000000     0.484200000000     0.998640000000    -0.398879   
O69      O      0.024620000000     0.519170000000     0.006420000000    -0.398394   
O70      O      0.022670000000     0.537760000000     0.903960000000    -0.401222   
O71      O      0.006790000000     0.547180000000     0.970450000000    -0.404013   
O72      O      0.040620000000     0.509870000000     0.939400000000    -0.399191   
O73      O      0.651430000000     0.859800000000     0.325610000000    -0.403995   
O74      O      0.683890000000     0.822180000000     0.289700000000    -0.398904   
O75      O      0.671080000000     0.831880000000     0.358050000000    -0.401158   
O76      O      0.664370000000     0.850010000000     0.256990000000    -0.40059    
O77      O      0.701470000000     0.883260000000     0.260680000000    -0.401157   
O78      O      0.706610000000     0.866880000000     0.362960000000    -0.403776   
O79      O      0.720450000000     0.855940000000     0.295290000000    -0.3984     
O80      O      0.687650000000     0.894040000000     0.327980000000    -0.402469   
O81      O      0.811340000000     0.684430000000     0.153800000000    -0.398698   
O82      O      0.844630000000     0.647910000000     0.116370000000    -0.400509   
O83      O      0.837690000000     0.662600000000     0.185330000000    -0.400947   
O84      O      0.818590000000     0.669410000000     0.084940000000    -0.398488   
O85      O      0.852940000000     0.705560000000     0.079810000000    -0.400418   
O86      O      0.872560000000     0.698200000000     0.179410000000    -0.400906   
O87      O      0.879370000000     0.683570000000     0.109960000000    -0.399266   
O88      O      0.846350000000     0.719830000000     0.148900000000    -0.403961   
O89      O      0.531770000000     0.996000000000     0.480760000000    -0.400129   
O90      O      0.490900000000     0.028660000000     0.495390000000    -0.400317   
O91      O      0.506070000000     0.011950000000     0.435000000000    -0.399785   
O92      O      0.516610000000     0.012650000000     0.541010000000    -0.39973    
O93      O      0.550050000000     0.049620000000     0.536480000000    -0.398871   
O94      O      0.539240000000     0.049120000000     0.430530000000    -0.400571   
O95      O      0.524400000000     0.065510000000     0.491060000000    -0.402509   
O96      O      0.565280000000     0.032820000000     0.475690000000    -0.39798    
O97      O      0.322440000000     0.122740000000     0.149620000000    -0.400114   
O98      O      0.362880000000     0.196250000000     0.132400000000    -0.399048   
O99      O      0.341970000000     0.165390000000     0.193850000000    -0.398673   
O100     O      0.342970000000     0.152810000000     0.088600000000    -0.398609   
O101     O      0.309130000000     0.155230000000     0.081270000000    -0.398075   
O102     O      0.308330000000     0.168150000000     0.186460000000    -0.400008   
O103     O      0.328710000000     0.197980000000     0.125200000000    -0.403427   
O104     O      0.288250000000     0.124580000000     0.143040000000    -0.397712   
O105     O      0.509510000000     0.464300000000     0.013400000000    -0.399969   
O106     O      0.545920000000     0.531930000000     0.968550000000    -0.402876   
O107     O      0.538180000000     0.513170000000     0.039850000000    -0.399525   
O108     O      0.516950000000     0.482690000000     0.942120000000    -0.398736   
O109     O      0.483580000000     0.486260000000     0.946020000000    -0.398787   
O110     O      0.505160000000     0.517180000000     0.043250000000    -0.403244   
O111     O      0.512440000000     0.535190000000     0.971970000000    -0.401819   
O112     O      0.476040000000     0.467660000000     0.017580000000    -0.398211   
O113     O      0.198840000000     0.868160000000     0.305080000000    -0.403517   
O114     O      0.163960000000     0.794310000000     0.320100000000    -0.401342   
O115     O      0.181190000000     0.826280000000     0.259720000000    -0.405066   
O116     O      0.181680000000     0.835990000000     0.365670000000    -0.401055   
O117     O      0.146670000000     0.836530000000     0.361720000000    -0.397056   
O118     O      0.144350000000     0.822950000000     0.256010000000    -0.398889   
O119     O      0.128110000000     0.793180000000     0.318540000000    -0.402524   
O120     O      0.163000000000     0.866470000000     0.299060000000    -0.400165   
O121     O      0.023960000000     0.523140000000     0.437400000000    -0.397485   
O122     O      0.981510000000     0.451300000000     0.464840000000    -0.398528   
O123     O      0.996610000000     0.477620000000     0.399690000000    -0.39994    
O124     O      0.009020000000     0.497050000000     0.503500000000    -0.39637    
O125     O      0.975880000000     0.501170000000     0.504350000000    -0.399571   
O126     O      0.964360000000     0.483190000000     0.400280000000    -0.404236   
O127     O      0.948840000000     0.456220000000     0.466370000000    -0.403234   
O128     O      0.991080000000     0.527700000000     0.438550000000    -0.402211   
O129     O      0.879080000000     0.206800000000     0.644010000000    -0.397476   
O130     O      0.853200000000     0.136280000000     0.676260000000    -0.402595   
O131     O      0.866610000000     0.161290000000     0.609130000000    -0.403233   
O132     O      0.865950000000     0.181730000000     0.710380000000    -0.402995   
O133     O      0.828740000000     0.176800000000     0.702190000000    -0.397474   
O134     O      0.827360000000     0.150730000000     0.603180000000    -0.398728   
O135     O      0.815160000000     0.129610000000     0.672350000000    -0.401646   
O136     O      0.840870000000     0.198050000000     0.632420000000    -0.399029   
O137     O      0.680910000000     0.793190000000     0.823630000000    -0.399954   
O138     O      0.720650000000     0.866350000000     0.804310000000    -0.399508   
O139     O      0.702350000000     0.837020000000     0.866760000000    -0.397137   
O140     O      0.699000000000     0.822510000000     0.761290000000    -0.397498   
O141     O      0.665480000000     0.825820000000     0.757100000000    -0.400546   
O142     O      0.667160000000     0.837230000000     0.862770000000    -0.400426   
O143     O      0.686320000000     0.868270000000     0.801730000000    -0.399178   
O144     O      0.646420000000     0.794620000000     0.818350000000    -0.398628   


