data_structure

_audit_creation_method RASPA-1.0
_audit_creation_date 2023-6-4
_audit_author_name 'Poobodin Mano'

_cell_length_a    25.153
_cell_length_b    27.632
_cell_length_c    37.8293
_cell_angle_alpha 89.9988
_cell_angle_beta  89.9988
_cell_angle_gamma 93.6726
_cell_volume      26238.4

_symmetry_cell_setting          triclinic
_symmetry_space_group_name_Hall 'P 1'
_symmetry_space_group_name_H-M  'P 1'
_symmetry_Int_Tables_number     1

_symmetry_equiv_pos_as_xyz 'x,y,z'

loop_
_atom_site_label
_atom_site_type_symbol
_atom_site_fract_x
_atom_site_fract_y
_atom_site_fract_z
_atom_site_charge
C1       C      0.106630000000     0.889770000000     0.001570000000     0.394967   
C2       C      0.992550000000     0.046590000000     0.998060000000     0.399737   
C3       C      0.137510000000     0.024260000000     0.013360000000     0.401607   
C4       C      0.961760000000     0.914850000000     0.985640000000     0.407894   
C5       C      0.060560000000     0.905880000000     0.516440000000     0.400069   
C6       C      0.947260000000     0.063200000000     0.517080000000     0.399116   
C7       C      0.093230000000     0.039690000000     0.503430000000     0.40411    
C8       C      0.915140000000     0.932020000000     0.530490000000     0.40719    
C9       C      0.530570000000     0.465130000000     0.946600000000     0.478799   
C10      C      0.568420000000     0.485170000000     0.077770000000     0.488133   
C11      C      0.620030000000     0.406620000000     0.010860000000     0.471388   
C12      C      0.477810000000     0.529880000000     0.015140000000     0.473365   
C13      C      0.517140000000     0.494850000000     0.445720000000     0.471925   
C14      C      0.495000000000     0.480920000000     0.579090000000     0.476602   
C15      C      0.580220000000     0.427340000000     0.514780000000     0.471958   
C16      C      0.431750000000     0.544570000000     0.508900000000     0.463405   
C17      C      0.532260000000     0.498640000000     0.850280000000    -0.0281608  
C18      C      0.460840000000     0.430580000000     0.668530000000    -0.0317454  
C19      C      0.513460000000     0.517690000000     0.637400000000    -0.0021519  
C20      C      0.447170000000     0.444420000000     0.630520000000    -0.00193822 
C21      C      0.451830000000     0.493960000000     0.749710000000    -0.0525649  
C22      C      0.520920000000     0.428000000000     0.777030000000    -0.0524954  
C23      C      0.480250000000     0.465780000000     0.726500000000     0.0621547  
C24      C      0.524450000000     0.499610000000     0.674660000000    -0.0313109  
C25      C      0.492970000000     0.456630000000     0.800270000000     0.0622411  
C26      C      0.455750000000     0.443510000000     0.859020000000    -0.0103053  
C27      C      0.458250000000     0.489810000000     0.786240000000    -0.0554539  
C28      C      0.469440000000     0.435260000000     0.898420000000    -0.0504484  
C29      C      0.555420000000     0.489720000000     0.886600000000    -0.00441927 
C30      C      0.515010000000     0.432630000000     0.740440000000    -0.0553763  
C31      C      0.420200000000     0.443830000000     0.920040000000     0.312142   
C32      C      0.542080000000     0.456790000000     0.171930000000     0.000531402
C33      C      0.573540000000     0.530700000000     0.357630000000    -0.0316981  
C34      C      0.483230000000     0.471990000000     0.386540000000    -0.00176925 
C35      C      0.553340000000     0.541810000000     0.394730000000    -0.00255296 
C36      C      0.508880000000     0.525080000000     0.273610000000    -0.0523939  
C37      C      0.599220000000     0.479830000000     0.251140000000    -0.0531286  
C38      C      0.542960000000     0.506470000000     0.298780000000     0.06169    
C39      C      0.507550000000     0.463680000000     0.350170000000    -0.0318806  
C40      C      0.565580000000     0.499110000000     0.225990000000     0.0629816  
C41      C      0.579510000000     0.539700000000     0.169200000000    -0.00917763 
C42      C      0.519580000000     0.521040000000     0.237510000000    -0.0559846  
C43      C      0.600040000000     0.533170000000     0.131030000000    -0.0545879  
C44      C      0.565320000000     0.444900000000     0.136000000000    -0.0833186  
C45      C      0.587840000000     0.482890000000     0.287220000000    -0.0551102  
C46      C      0.591520000000     0.579580000000     0.111100000000     0.313294   
C47      C      0.140980000000     0.805850000000     0.481020000000    -0.027087   
C48      C      0.303400000000     0.601990000000     0.523810000000    -0.0320117  
C49      C      0.406940000000     0.626010000000     0.491330000000    -0.00376031 
C50      C      0.336210000000     0.561030000000     0.509710000000    -0.00270064 
C51      C      0.227970000000     0.678720000000     0.489420000000    -0.0520111  
C52      C      0.249830000000     0.758790000000     0.533270000000    -0.0524667  
C53      C      0.276080000000     0.682390000000     0.508300000000     0.0607689  
C54      C      0.370670000000     0.663720000000     0.505800000000    -0.0312723  
C55      C      0.202980000000     0.756310000000     0.513030000000     0.0619445  
C56      C      0.130510000000     0.793000000000     0.543490000000    -0.00906834 
C57      C      0.191240000000     0.714550000000     0.492240000000    -0.0547775  
C58      C      0.105710000000     0.842160000000     0.549310000000    -0.0551717  
C59      C      0.117550000000     0.855480000000     0.482090000000    -0.00880499 
C60      C      0.285500000000     0.721950000000     0.531580000000    -0.0538667  
C61      C      0.058490000000     0.834160000000     0.573880000000     0.313839   
C62      C      0.839550000000     0.830950000000     0.568190000000    -0.0287027  
C63      C      0.638740000000     0.652010000000     0.501170000000    -0.0233386  
C64      C      0.637610000000     0.568230000000     0.546370000000    -0.0195376  
C65      C      0.608730000000     0.604020000000     0.491840000000    -0.0167535  
C66      C      0.765500000000     0.696330000000     0.521920000000    -0.0520037  
C67      C      0.716110000000     0.771060000000     0.556350000000    -0.0536142  
C68      C      0.712880000000     0.688690000000     0.533670000000     0.0634249  
C69      C      0.667610000000     0.615820000000     0.556950000000    -0.0206814  
C70      C      0.767840000000     0.779340000000     0.543270000000     0.0642011  
C71      C      0.803400000000     0.848200000000     0.509680000000    -0.00856138 
C72      C      0.793090000000     0.741260000000     0.526830000000    -0.0557474  
C73      C      0.821570000000     0.901900000000     0.513260000000    -0.053748   
C74      C      0.859220000000     0.884140000000     0.572790000000    -0.00851198 
C75      C      0.688770000000     0.726060000000     0.551820000000    -0.0553531  
C76      C      0.829630000000     0.925830000000     0.477470000000     0.314686   
C77      C      0.645540000000     0.309840000000     0.505480000000    -0.0287086  
C78      C      0.884000000000     0.177500000000     0.544390000000    -0.029893   
C79      C      0.876210000000     0.105230000000     0.487960000000    -0.00956786 
C80      C      0.907110000000     0.128090000000     0.550670000000    -0.00671598 
C81      C      0.759630000000     0.212350000000     0.540790000000    -0.0521861  
C82      C      0.784670000000     0.292090000000     0.497080000000    -0.0523228  
C83      C      0.805980000000     0.213230000000     0.520160000000     0.0620535  
C84      C      0.854350000000     0.155500000000     0.485540000000    -0.0282092  
C85      C      0.736940000000     0.290030000000     0.516350000000     0.0616492  
C86      C      0.703010000000     0.362650000000     0.541470000000    -0.0102189  
C87      C      0.725790000000     0.250590000000     0.539420000000    -0.0549506  
C88      C      0.672050000000     0.407670000000     0.532520000000    -0.0525942  
C89      C      0.612080000000     0.350980000000     0.493540000000    -0.00514741 
C90      C      0.819380000000     0.254500000000     0.499300000000    -0.0551016  
C91      C      0.667440000000     0.437040000000     0.566060000000     0.312786   
C92      C      0.191600000000     0.138400000000     0.521920000000    -0.0275274  
C93      C      0.380570000000     0.330830000000     0.463020000000    -0.0238478  
C94      C      0.372450000000     0.393850000000     0.523200000000    -0.0170936  
C95      C      0.409350000000     0.381080000000     0.465140000000    -0.0161814  
C96      C      0.250980000000     0.276800000000     0.476890000000    -0.0531079  
C97      C      0.303240000000     0.193270000000     0.493200000000    -0.0536788  
C98      C      0.305420000000     0.280600000000     0.484830000000     0.0623772  
C99      C      0.344080000000     0.343310000000     0.522630000000    -0.0232451  
C100     C      0.248900000000     0.189400000000     0.485160000000     0.0634569  
C101     C      0.186260000000     0.129440000000     0.458060000000    -0.00987872 
C102     C      0.222590000000     0.231700000000     0.477510000000    -0.0561697  
C103     C      0.163820000000     0.076460000000     0.461450000000    -0.0555398  
C104     C      0.171720000000     0.085800000000     0.527550000000    -0.0093127  
C105     C      0.331230000000     0.238400000000     0.493570000000    -0.0555869  
C106     C      0.127620000000     0.064410000000     0.430260000000     0.316286   
C107     C      0.344650000000     0.583650000000     0.024360000000    -0.0279844  
C108     C      0.214580000000     0.807690000000     0.981270000000    -0.0300881  
C109     C      0.127750000000     0.813950000000     0.031850000000    -0.00794285 
C110     C      0.165490000000     0.834840000000     0.971020000000    -0.00729067 
C111     C      0.238820000000     0.691900000000     0.990300000000    -0.0521736  
C112     C      0.323530000000     0.711070000000     0.037040000000    -0.0524024  
C113     C      0.240740000000     0.734700000000     0.010330000000     0.061084   
C114     C      0.178130000000     0.786960000000     0.038950000000    -0.030021   
C115     C      0.320960000000     0.667710000000     0.017610000000     0.0614666  
C116     C      0.403030000000     0.641350000000     0.993160000000    -0.0110034  
C117     C      0.278760000000     0.659060000000     0.993410000000    -0.054879   
C118     C      0.453060000000     0.614090000000     0.001970000000    -0.0507024  
C119     C      0.390420000000     0.552950000000     0.035470000000    -0.00673594 
C120     C      0.284400000000     0.744610000000     0.033160000000    -0.0548099  
C121     C      0.488180000000     0.615370000000     0.969390000000     0.314769   
C122     C      0.674340000000     0.640370000000     0.009820000000    -0.0173367  
C123     C      0.887640000000     0.811270000000     0.951080000000    -0.0302891  
C124     C      0.870800000000     0.885820000000     0.003710000000    -0.00555984 
C125     C      0.906640000000     0.864080000000     0.944170000000    -0.00589981 
C126     C      0.769540000000     0.749840000000     0.958580000000    -0.0514804  
C127     C      0.808280000000     0.682240000000     0.005550000000    -0.0534189  
C128     C      0.816230000000     0.761490000000     0.977610000000     0.0630697  
C129     C      0.852060000000     0.832850000000     0.009000000000    -0.0302764  
C130     C      0.759620000000     0.671980000000     0.988390000000     0.0654405  
C131     C      0.726300000000     0.592130000000     0.969890000000    -0.00356118 
C132     C      0.741770000000     0.705100000000     0.963380000000    -0.0561014  
C133     C      0.693520000000     0.545820000000     0.981870000000    -0.064113   
C134     C      0.643800000000     0.594400000000     0.022110000000    -0.0259959  
C135     C      0.837090000000     0.726340000000     0.999750000000    -0.0542427  
C136     C      0.689840000000     0.510600000000     0.951430000000     0.304257   
C137     C      0.912740000000     0.145470000000     0.032350000000    -0.0275683  
C138     C      0.686700000000     0.291750000000     0.993790000000    -0.0313494  
C139     C      0.712190000000     0.387300000000     0.024490000000    -0.00143535 
C140     C      0.641510000000     0.320870000000     0.008240000000    -0.00163691 
C141     C      0.772150000000     0.225060000000     0.028410000000    -0.0522028  
C142     C      0.856830000000     0.242250000000     0.981410000000    -0.051997   
C143     C      0.775480000000     0.268270000000     0.008800000000     0.0612795  
C144     C      0.753870000000     0.354330000000     0.010040000000    -0.0311431  
C145     C      0.854520000000     0.199920000000     0.002000000000     0.0615     
C146     C      0.884270000000     0.128600000000     0.972380000000    -0.00982589 
C147     C      0.810390000000     0.190770000000     0.024610000000    -0.0547902  
C148     C      0.934090000000     0.100370000000     0.964300000000    -0.0553742  
C149     C      0.964040000000     0.119460000000     0.027530000000    -0.0095622  
C150     C      0.817410000000     0.275700000000     0.984200000000    -0.0540524  
C151     C      0.916970000000     0.057600000000     0.941000000000     0.314379   
C152     C      0.404260000000     0.312180000000     0.005440000000    -0.0149023  
C153     C      0.249060000000     0.094570000000     0.061300000000    -0.02986    
C154     C      0.203220000000     0.084650000000     0.990270000000    -0.00600153 
C155     C      0.195250000000     0.066120000000     0.057330000000    -0.00578274 
C156     C      0.282090000000     0.216460000000     0.047030000000    -0.0523022  
C157     C      0.388910000000     0.196620000000     0.038120000000    -0.053454   
C158     C      0.295530000000     0.168890000000     0.040920000000     0.063115   
C159     C      0.256150000000     0.111560000000     0.998970000000    -0.0294589  
C160     C      0.375120000000     0.244620000000     0.041990000000     0.0638434  
C161     C      0.423990000000     0.313520000000     0.068500000000    -0.00105789 
C162     C      0.321500000000     0.254170000000     0.047790000000    -0.0558803  
C163     C      0.470460000000     0.351180000000     0.061870000000    -0.0724353  
C164     C      0.449740000000     0.350280000000     0.999070000000    -0.0342433  
C165     C      0.349440000000     0.158750000000     0.037840000000    -0.055661   
C166     C      0.478380000000     0.382440000000     0.093970000000     0.314141   
Cu1      Cu     0.058820000000     0.972580000000     0.967760000000     0.853496   
Cu2      Cu     0.041470000000     0.964620000000     0.031690000000     0.839842   
Cu3      Cu     0.996600000000     0.980290000000     0.484900000000     0.862988   
Cu4      Cu     0.012560000000     0.989700000000     0.548890000000     0.84669    
Cu5      Cu     0.590570000000     0.507370000000     0.005800000000     1.19429    
Cu6      Cu     0.510980000000     0.432200000000     0.019100000000     1.20519    
Cu7      Cu     0.544510000000     0.524990000000     0.516790000000     1.19167    
Cu8      Cu     0.468290000000     0.447790000000     0.507980000000     1.17962    
H1       H      0.538330000000     0.411160000000     0.723100000000     0.043018   
H2       H      0.565820000000     0.509700000000     0.832190000000     0.0367267  
H3       H      0.433610000000     0.410200000000     0.848820000000     0.0391939  
H4       H      0.486300000000     0.547810000000     0.639170000000     0.0382124  
H5       H      0.589550000000     0.466460000000     0.883470000000     0.0423961  
H6       H      0.425230000000     0.410990000000     0.680530000000     0.0366424  
H7       H      0.536940000000     0.531530000000     0.691350000000     0.0364399  
H8       H      0.441730000000     0.410670000000     0.614550000000     0.0407778  
H9       H      0.548450000000     0.402940000000     0.787350000000     0.0473227  
H10      H      0.571190000000     0.525230000000     0.897390000000     0.0539225  
H11      H      0.425670000000     0.520200000000     0.739370000000     0.0465992  
H12      H      0.505410000000     0.529160000000     0.851690000000     0.0411809  
H13      H      0.551720000000     0.532780000000     0.625910000000     0.0402143  
H14      H      0.478310000000     0.396520000000     0.901610000000     0.0589943  
H15      H      0.493740000000     0.405470000000     0.667990000000     0.039985   
H16      H      0.557910000000     0.475070000000     0.673920000000     0.0385273  
H17      H      0.437100000000     0.513330000000     0.803370000000     0.0440639  
H18      H      0.428630000000     0.473730000000     0.856630000000     0.0416346  
H19      H      0.408440000000     0.461700000000     0.630650000000     0.0362496  
H20      H      0.381170000000     0.495000000000     0.946370000000     0.182816   
H21      H      0.613980000000     0.466790000000     0.305960000000     0.0419372  
H22      H      0.539160000000     0.422990000000     0.188020000000     0.0324988  
H23      H      0.606530000000     0.567190000000     0.182890000000     0.0391231  
H24      H      0.446700000000     0.492150000000     0.383150000000     0.0374368  
H25      H      0.605240000000     0.431110000000     0.141250000000     0.0621056  
H26      H      0.590790000000     0.565020000000     0.345700000000     0.0366304  
H27      H      0.475620000000     0.447550000000     0.332590000000     0.0356686  
H28      H      0.588210000000     0.552420000000     0.411740000000     0.0385788  
H29      H      0.634060000000     0.461870000000     0.242670000000     0.0467882  
H30      H      0.542490000000     0.413250000000     0.122810000000     0.194691   
H31      H      0.473540000000     0.542300000000     0.282050000000     0.0461613  
H32      H      0.501360000000     0.469740000000     0.168800000000     0.0326567  
H33      H      0.470980000000     0.436080000000     0.398240000000     0.0361162  
H34      H      0.643570000000     0.528210000000     0.132500000000     0.061685   
H35      H      0.605810000000     0.505120000000     0.359950000000     0.0381695  
H36      H      0.539120000000     0.437340000000     0.352440000000     0.0384391  
H37      H      0.491870000000     0.534830000000     0.218730000000     0.0437028  
H38      H      0.539060000000     0.553920000000     0.168260000000     0.0431841  
H39      H      0.528440000000     0.573570000000     0.393130000000     0.0358805  
H40      H      0.536170000000     0.617620000000     0.086000000000     0.179264   
H41      H      0.321030000000     0.725570000000     0.547680000000     0.0419584  
H42      H      0.169140000000     0.805340000000     0.458340000000     0.0374028  
H43      H      0.150880000000     0.783190000000     0.568390000000     0.0376646  
H44      H      0.402440000000     0.624540000000     0.462100000000     0.0366301  
H45      H      0.150370000000     0.883850000000     0.477940000000     0.0442044  
H46      H      0.260480000000     0.589660000000     0.522140000000     0.0354531  
H47      H      0.378180000000     0.697900000000     0.490530000000     0.036185   
H48      H      0.330960000000     0.529390000000     0.527840000000     0.0376227  
H49      H      0.259010000000     0.789820000000     0.550180000000     0.0471246  
H50      H      0.089920000000     0.857910000000     0.459280000000     0.0486882  
H51      H      0.219200000000     0.648100000000     0.472030000000     0.0450335  
H52      H      0.107990000000     0.777770000000     0.476250000000     0.0404744  
H53      H      0.449000000000     0.638460000000     0.496990000000     0.0408137  
H54      H      0.136210000000     0.866910000000     0.562580000000     0.0655006  
H55      H      0.313190000000     0.609140000000     0.552130000000     0.0399467  
H56      H      0.381460000000     0.670920000000     0.533940000000     0.0384033  
H57      H      0.154710000000     0.709990000000     0.477230000000     0.0428159  
H58      H      0.099040000000     0.763650000000     0.537970000000     0.0442011  
H59      H      0.320270000000     0.549460000000     0.483410000000     0.0380124  
H60      H      0.980480000000     0.810260000000     0.576330000000     0.178512   
H61      H      0.648260000000     0.721000000000     0.561400000000     0.0422991  
H62      H      0.829180000000     0.815580000000     0.594690000000     0.0370478  
H63      H      0.766530000000     0.844840000000     0.493300000000     0.038984   
H64      H      0.664580000000     0.544920000000     0.531730000000     0.0514332  
H65      H      0.828330000000     0.903330000000     0.587250000000     0.0414978  
H66      H      0.653870000000     0.669490000000     0.476320000000     0.034736   
H67      H      0.703510000000     0.607370000000     0.572390000000     0.0408229  
H68      H      0.573000000000     0.611620000000     0.476030000000     0.0334634  
H69      H      0.696450000000     0.800060000000     0.569180000000     0.0467189  
H70      H      0.895940000000     0.885580000000     0.589240000000     0.0461128  
H71      H      0.784560000000     0.667800000000     0.508110000000     0.0482932  
H72      H      0.872180000000     0.810400000000     0.556820000000     0.0423446  
H73      H      0.623510000000     0.548700000000     0.570580000000     0.044371   
H74      H      0.787940000000     0.919440000000     0.526190000000     0.0594656  
H75      H      0.610230000000     0.676030000000     0.513680000000     0.0376121  
H76      H      0.641370000000     0.636630000000     0.574180000000     0.0379625  
H77      H      0.833310000000     0.746780000000     0.516790000000     0.0462909  
H78      H      0.834950000000     0.828600000000     0.496120000000     0.0515713  
H79      H      0.634440000000     0.581170000000     0.475770000000     0.0380182  
H80      H      0.854950000000     0.915930000000     0.427130000000     0.18001    
H81      H      0.855760000000     0.257220000000     0.483990000000     0.042527   
H82      H      0.644240000000     0.281710000000     0.484360000000     0.0359305  
H83      H      0.745230000000     0.374990000000     0.547020000000     0.0387942  
H84      H      0.842270000000     0.077930000000     0.491860000000     0.0533109  
H85      H      0.623910000000     0.361370000000     0.466100000000     0.0368013  
H86      H      0.871850000000     0.192060000000     0.570400000000     0.0367191  
H87      H      0.819720000000     0.153430000000     0.467160000000     0.0385211  
H88      H      0.945630000000     0.133920000000     0.564980000000     0.041374   
H89      H      0.794660000000     0.322710000000     0.479920000000     0.0466361  
H90      H      0.569710000000     0.336840000000     0.492420000000     0.0427606  
H91      H      0.749350000000     0.181500000000     0.557670000000     0.0473177  
H92      H      0.627220000000     0.293230000000     0.529760000000     0.0403108  
H93      H      0.894840000000     0.097000000000     0.462160000000     0.0493868  
H94      H      0.696010000000     0.429910000000     0.512970000000     0.0613572  
H95      H      0.915130000000     0.203450000000     0.532990000000     0.0393569  
H96      H      0.885730000000     0.181190000000     0.474170000000     0.0384101  
H97      H      0.690380000000     0.248630000000     0.555700000000     0.0431817  
H98      H      0.686520000000     0.344520000000     0.565830000000     0.0433775  
H99      H      0.879530000000     0.106060000000     0.568180000000     0.0434414  
H100     H      0.624610000000     0.443420000000     0.611190000000     0.177424   
H101     H      0.372750000000     0.240260000000     0.501190000000     0.0422849  
H102     H      0.218300000000     0.149480000000     0.544400000000     0.0355737  
H103     H      0.209700000000     0.133540000000     0.433120000000     0.0376721  
H104     H      0.345950000000     0.421160000000     0.512630000000     0.0371786  
H105     H      0.206740000000     0.063430000000     0.530160000000     0.0409623  
H106     H      0.368700000000     0.323560000000     0.435100000000     0.0341781  
H107     H      0.306130000000     0.344490000000     0.537620000000     0.0336596  
H108     H      0.447230000000     0.380060000000     0.450210000000     0.0335571  
H109     H      0.323570000000     0.161220000000     0.500170000000     0.0464832  
H110     H      0.149800000000     0.083680000000     0.553060000000     0.0451948  
H111     H      0.230340000000     0.309050000000     0.470970000000     0.0457629  
H112     H      0.157260000000     0.161970000000     0.521960000000     0.0415708  
H113     H      0.382560000000     0.403550000000     0.550940000000     0.0345719  
H114     H      0.198540000000     0.053490000000     0.459600000000     0.061798   
H115     H      0.409310000000     0.303890000000     0.470990000000     0.0372421  
H116     H      0.369620000000     0.317490000000     0.536140000000     0.0386646  
H117     H      0.180170000000     0.230140000000     0.472560000000     0.04398    
H118     H      0.152600000000     0.153630000000     0.456580000000     0.0476558  
H119     H      0.384820000000     0.408810000000     0.453020000000     0.0360704  
H120     H      0.062830000000     0.084900000000     0.403370000000     0.180639   
H121     H      0.288350000000     0.778020000000     0.048080000000     0.0422864  
H122     H      0.312510000000     0.579180000000     0.044550000000     0.0371345  
H123     H      0.415400000000     0.680570000000     0.990020000000     0.0378504  
H124     H      0.094890000000     0.786860000000     0.024740000000     0.0385491  
H125     H      0.399380000000     0.560090000000     0.063850000000     0.0446053  
H126     H      0.231880000000     0.793100000000     0.956680000000     0.0365558  
H127     H      0.167880000000     0.756620000000     0.057580000000     0.0363834  
H128     H      0.178890000000     0.866930000000     0.954820000000     0.0422169  
H129     H      0.356440000000     0.719140000000     0.055000000000     0.0471051  
H130     H      0.376470000000     0.514050000000     0.033310000000     0.0491933  
H131     H      0.206380000000     0.684210000000     0.971910000000     0.0463564  
H132     H      0.328430000000     0.569460000000     0.998740000000     0.0394807  
H133     H      0.116050000000     0.831810000000     0.056740000000     0.0423444  
H134     H      0.474810000000     0.634300000000     0.023580000000     0.0606747  
H135     H      0.245180000000     0.833360000000     0.993560000000     0.039731   
H136     H      0.208130000000     0.812480000000     0.051910000000     0.0382023  
H137     H      0.276420000000     0.627050000000     0.976900000000     0.0434666  
H138     H      0.385300000000     0.628380000000     0.967550000000     0.0459634  
H139     H      0.139020000000     0.810690000000     0.954210000000     0.0402929  
H140     H      0.496670000000     0.586680000000     0.920400000000     0.183263   
H141     H      0.874390000000     0.733570000000     0.013570000000     0.0426638  
H142     H      0.677430000000     0.666430000000     0.032280000000     0.0445266  
H143     H      0.767610000000     0.582600000000     0.963610000000     0.0358034  
H144     H      0.837130000000     0.905250000000     0.992700000000     0.0408892  
H145     H      0.664430000000     0.579590000000     0.045340000000     0.0572801  
H146     H      0.877140000000     0.793770000000     0.925290000000     0.0370601  
H147     H      0.815400000000     0.831120000000     0.025550000000     0.0381037  
H148     H      0.943310000000     0.864870000000     0.927710000000     0.0436726  
H149     H      0.823130000000     0.656510000000     0.024130000000     0.0482752  
H150     H      0.603140000000     0.603390000000     0.030080000000     0.0534591  
H151     H      0.753990000000     0.776040000000     0.940660000000     0.0476738  
H152     H      0.651350000000     0.656480000000     0.988140000000     0.050036   
H153     H      0.881500000000     0.902470000000     0.029710000000     0.0446902  
H154     H      0.714360000000     0.529140000000     0.004370000000     0.056214   
H155     H      0.920450000000     0.791780000000     0.963300000000     0.0405814  
H156     H      0.883740000000     0.814670000000     0.023460000000     0.0407647  
H157     H      0.705360000000     0.697290000000     0.948660000000     0.0477407  
H158     H      0.708530000000     0.607000000000     0.945500000000     0.0493254  
H159     H      0.875300000000     0.881820000000     0.929070000000     0.0393311  
H160     H      0.672860000000     0.503990000000     0.899190000000     0.175862   
H161     H      0.820680000000     0.307590000000     0.967610000000     0.0440228  
H162     H      0.919900000000     0.174390000000     0.052580000000     0.0361633  
H163     H      0.870870000000     0.145080000000     0.947280000000     0.0381736  
H164     H      0.712280000000     0.384890000000     0.053830000000     0.0383912  
H165     H      0.997250000000     0.147200000000     0.022700000000     0.0393686  
H166     H      0.674020000000     0.252510000000     0.995900000000     0.0361275  
H167     H      0.791810000000     0.362160000000     0.024690000000     0.0379868  
H168     H      0.606350000000     0.315170000000     0.990520000000     0.0399081  
H169     H      0.889510000000     0.249360000000     0.963110000000     0.0475909  
H170     H      0.973050000000     0.100980000000     0.052740000000     0.0437002  
H171     H      0.739580000000     0.217950000000     0.046800000000     0.0456498  
H172     H      0.881410000000     0.118700000000     0.042440000000     0.0407248  
H173     H      0.724420000000     0.425480000000     0.017530000000     0.0522516  
H174     H      0.962740000000     0.125070000000     0.949380000000     0.0644466  
H175     H      0.693550000000     0.300340000000     0.965310000000     0.0429604  
H176     H      0.760840000000     0.363260000000     0.981640000000     0.0464188  
H177     H      0.805670000000     0.157730000000     0.039890000000     0.042894   
H178     H      0.851000000000     0.103480000000     0.982170000000     0.0457681  
H179     H      0.629710000000     0.306410000000     0.034740000000     0.0402548  
H180     H      0.877410000000     0.991120000000     0.940570000000     0.181675   
H181     H      0.360630000000     0.122060000000     0.033420000000     0.042059   
H182     H      0.400270000000     0.288380000000     0.981720000000     0.0377266  
H183     H      0.434010000000     0.290360000000     0.091350000000     0.0333752  
H184     H      0.174160000000     0.111580000000     0.982760000000     0.0424075  
H185     H      0.486660000000     0.332580000000     0.991730000000     0.0422154  
H186     H      0.251310000000     0.110710000000     0.088270000000     0.036129   
H187     H      0.264060000000     0.140500000000     0.978790000000     0.0373207  
H188     H      0.195840000000     0.032010000000     0.072910000000     0.0400738  
H189     H      0.430080000000     0.188830000000     0.033860000000     0.0462381  
H190     H      0.437990000000     0.372840000000     0.976650000000     0.0537796  
H191     H      0.240690000000     0.224530000000     0.049600000000     0.0473724  
H192     H      0.366620000000     0.330870000000     0.008690000000     0.0431703  
H193     H      0.208760000000     0.061510000000     0.966650000000     0.0420046  
H194     H      0.507340000000     0.331830000000     0.057090000000     0.0615495  
H195     H      0.281930000000     0.069620000000     0.058690000000     0.0371252  
H196     H      0.288660000000     0.086090000000     0.997210000000     0.037201   
H197     H      0.309820000000     0.290900000000     0.051140000000     0.0448157  
H198     H      0.387320000000     0.332250000000     0.075130000000     0.0428729  
H199     H      0.163890000000     0.087710000000     0.069150000000     0.0414626  
H200     H      0.450080000000     0.439320000000     0.120980000000     0.161849   
N1       N      0.516900000000     0.465380000000     0.911380000000    -0.164191   
N2       N      0.503930000000     0.453960000000     0.837750000000    -0.114215   
N3       N      0.475950000000     0.474550000000     0.689010000000    -0.112617   
N4       N      0.488060000000     0.478950000000     0.614980000000    -0.18047    
N5       N      0.574120000000     0.489180000000     0.113850000000    -0.157697   
N6       N      0.577960000000     0.493720000000     0.188940000000    -0.118675   
N7       N      0.529320000000     0.510120000000     0.335750000000    -0.112582   
N8       N      0.520610000000     0.500470000000     0.409810000000    -0.181528   
N9       N      0.090410000000     0.865860000000     0.515760000000    -0.15106    
N10      N      0.168870000000     0.796860000000     0.514300000000    -0.114135   
N11      N      0.314410000000     0.645960000000     0.502470000000    -0.11211    
N12      N      0.393060000000     0.577090000000     0.505760000000    -0.178917   
N13      N      0.867840000000     0.906700000000     0.537720000000    -0.155975   
N14      N      0.792370000000     0.827730000000     0.545090000000    -0.116594   
N15      N      0.683750000000     0.643680000000     0.525040000000    -0.115262   
N16      N      0.591900000000     0.578890000000     0.524400000000    -0.230971   
N17      N      0.619110000000     0.394610000000     0.516220000000    -0.165719   
N18      N      0.700800000000     0.328410000000     0.511800000000    -0.114709   
N19      N      0.837830000000     0.171340000000     0.520740000000    -0.112099   
N20      N      0.914220000000     0.100850000000     0.517510000000    -0.163648   
N21      N      0.139250000000     0.067920000000     0.497050000000    -0.155086   
N22      N      0.220850000000     0.142500000000     0.488400000000    -0.11629    
N23      N      0.332820000000     0.328050000000     0.485870000000    -0.115637   
N24      N      0.421180000000     0.393090000000     0.502140000000    -0.229558   
N25      N      0.439870000000     0.563700000000     0.014870000000    -0.162807   
N26      N      0.363550000000     0.635000000000     0.021570000000    -0.114366   
N27      N      0.198890000000     0.767940000000     0.005660000000    -0.112828   
N28      N      0.135150000000     0.849010000000     0.002430000000    -0.16565    
N29      N      0.640200000000     0.558670000000     0.993410000000    -0.212113   
N30      N      0.727930000000     0.628790000000     0.998130000000    -0.117629   
N31      N      0.840790000000     0.809750000000     0.974400000000    -0.113186   
N32      N      0.915100000000     0.889120000000     0.978240000000    -0.16818    
N33      N      0.961110000000     0.085500000000     0.997240000000    -0.152703   
N34      N      0.896870000000     0.166800000000     0.998590000000    -0.114691   
N35      N      0.735320000000     0.303030000000     0.014500000000    -0.111805   
N36      N      0.657840000000     0.372990000000     0.011750000000    -0.175668   
N37      N      0.459080000000     0.380970000000     0.030460000000    -0.207189   
N38      N      0.415640000000     0.283160000000     0.036860000000    -0.11944    
N39      N      0.253130000000     0.132670000000     0.034400000000    -0.11254    
N40      N      0.180780000000     0.055250000000     0.020080000000    -0.167473   
O1       O      0.103890000000     0.914160000000     0.972760000000    -0.394476   
O2       O      0.011350000000     0.029900000000     0.969230000000    -0.382238   
O3       O      0.122570000000     0.016770000000     0.981290000000    -0.401916   
O4       O      0.993320000000     0.927790000000     0.960310000000    -0.399006   
O5       O      0.973190000000     0.926440000000     0.017720000000    -0.398388   
O6       O      0.110900000000     0.004580000000     0.039120000000    -0.399282   
O7       O      0.002620000000     0.026750000000     0.027800000000    -0.392745   
O8       O      0.082150000000     0.903070000000     0.029410000000    -0.39442    
O9       O      0.040800000000     0.921320000000     0.487560000000    -0.390926   
O10      O      0.953780000000     0.039930000000     0.488200000000    -0.39004    
O11      O      0.064560000000     0.022510000000     0.477820000000    -0.385322   
O12      O      0.929890000000     0.939600000000     0.498430000000    -0.384733   
O13      O      0.944390000000     0.948220000000     0.556160000000    -0.396776   
O14      O      0.079140000000     0.030410000000     0.535450000000    -0.400528   
O15      O      0.969460000000     0.049870000000     0.545800000000    -0.392188   
O16      O      0.053470000000     0.928330000000     0.545670000000    -0.383502   
O17      O      0.570440000000     0.491580000000     0.957550000000    -0.466131   
O18      O      0.593740000000     0.514010000000     0.056890000000    -0.470089   
O19      O      0.634110000000     0.451750000000     0.010750000000    -0.46925    
O20      O      0.526230000000     0.542900000000     0.008330000000    -0.460424   
O21      O      0.464620000000     0.485560000000     0.021920000000    -0.456992   
O22      O      0.570820000000     0.392650000000     0.011300000000    -0.482872   
O23      O      0.537340000000     0.451960000000     0.065090000000    -0.48285    
O24      O      0.502640000000     0.439560000000     0.968420000000    -0.474544   
O25      O      0.548640000000     0.519700000000     0.465880000000    -0.483055   
O26      O      0.524940000000     0.514700000000     0.565570000000    -0.483059   
O27      O      0.591640000000     0.472110000000     0.520710000000    -0.470336   
O28      O      0.480600000000     0.559800000000     0.509660000000    -0.475755   
O29      O      0.419060000000     0.499220000000     0.510100000000    -0.472637   
O30      O      0.532600000000     0.412740000000     0.507260000000    -0.475829   
O31      O      0.470660000000     0.449750000000     0.559240000000    -0.477806   
O32      O      0.481220000000     0.465880000000     0.458940000000    -0.481662   
O33      O      0.412510000000     0.488540000000     0.932750000000    -0.324441   
O34      O      0.386130000000     0.410830000000     0.924500000000    -0.256971   
O35      O      0.542690000000     0.588020000000     0.098510000000    -0.337698   
O36      O      0.628230000000     0.610460000000     0.107930000000    -0.257229   
O37      O      0.011230000000     0.815790000000     0.561150000000    -0.336936   
O38      O      0.063430000000     0.843210000000     0.605380000000    -0.249196   
O39      O      0.848950000000     0.900990000000     0.450040000000    -0.337187   
O40      O      0.819990000000     0.968330000000     0.473670000000    -0.249958   
O41      O      0.628230000000     0.425270000000     0.589540000000    -0.338094   
O42      O      0.700490000000     0.470200000000     0.572570000000    -0.258367   
O43      O      0.086620000000     0.092150000000     0.423040000000    -0.336977   
O44      O      0.135160000000     0.029210000000     0.411780000000    -0.248155   
O45      O      0.474850000000     0.586610000000     0.941470000000    -0.328087   
O46      O      0.528120000000     0.642940000000     0.968140000000    -0.252161   
O47      O      0.671760000000     0.524750000000     0.919720000000    -0.3388     
O48      O      0.705710000000     0.469980000000     0.954830000000    -0.250276   
O49      O      0.888750000000     0.018910000000     0.954890000000    -0.338367   
O50      O      0.927840000000     0.058450000000     0.909500000000    -0.24778    
O51      O      0.443840000000     0.414980000000     0.101210000000    -0.331149   
O52      O      0.525480000000     0.383840000000     0.109570000000    -0.342505   


