data_structure

_audit_creation_method RASPA-1.0
_audit_creation_date 2023-5-25
_audit_author_name 'Poobodin Mano'

_cell_length_a    38.5593
_cell_length_b    38.3754
_cell_length_c    38.4762
_cell_angle_alpha 90
_cell_angle_beta  90
_cell_angle_gamma 90
_cell_volume      56934.3

_symmetry_cell_setting          triclinic
_symmetry_space_group_name_Hall 'P 1'
_symmetry_space_group_name_H-M  'P 1'
_symmetry_Int_Tables_number     1

_symmetry_equiv_pos_as_xyz 'x,y,z'

loop_
_atom_site_label
_atom_site_type_symbol
_atom_site_fract_x
_atom_site_fract_y
_atom_site_fract_z
_atom_site_charge
C1       C      0.004010000000     0.063430000000     0.486610000000     0.401917   
C2       C      0.996830000000     0.925190000000     0.489010000000     0.402263   
C3       C      0.932210000000     0.000250000000     0.484890000000     0.399797   
C4       C      0.069550000000     0.988830000000     0.490820000000     0.400046   
C5       C      0.978820000000     0.427490000000     0.495950000000     0.399858   
C6       C      0.968110000000     0.564420000000     0.513520000000     0.401343   
C7       C      0.970000000000     0.504680000000     0.435690000000     0.401594   
C8       C      0.976610000000     0.486910000000     0.572680000000     0.401317   
C9       C      0.570070000000     0.009260000000     0.483550000000     0.401948   
C10      C      0.432730000000     0.998020000000     0.491430000000     0.401452   
C11      C      0.498020000000     0.001840000000     0.419120000000     0.402083   
C12      C      0.506140000000     0.005790000000     0.557280000000     0.399142   
C13      C      0.479190000000     0.983160000000     0.057760000000     0.400318   
C14      C      0.494940000000     0.002710000000     0.921580000000     0.400249   
C15      C      0.493460000000     0.062020000000     0.001190000000     0.400096   
C16      C      0.481060000000     0.925450000000     0.978280000000     0.399757   
C17      C      0.991490000000     0.483430000000     0.074030000000     0.399358   
C18      C      0.998040000000     0.486570000000     0.935830000000     0.399592   
C19      C      0.063080000000     0.483070000000     0.008940000000     0.398628   
C20      C      0.925070000000     0.486760000000     0.001650000000     0.398477   
C21      C      0.504430000000     0.425380000000     0.994170000000     0.397623   
C22      C      0.485690000000     0.562340000000     0.979230000000     0.398644   
C23      C      0.426810000000     0.486720000000     0.993300000000     0.399708   
C24      C      0.563520000000     0.502640000000     0.980150000000     0.401117   
C25      C      0.653420000000     0.484530000000     0.953080000000    -0.0309477  
C26      C      0.835600000000     0.523300000000     0.998160000000    -0.0299478  
C27      C      0.869740000000     0.455620000000     0.993320000000    -0.00668294 
C28      C      0.871110000000     0.518340000000     0.015100000000    -0.00742453 
C29      C      0.756250000000     0.472790000000     0.007790000000    -0.0536263  
C30      C      0.732140000000     0.520820000000     0.958860000000    -0.0536688  
C31      C      0.780160000000     0.493250000000     0.989450000000     0.0608457  
C32      C      0.834540000000     0.463920000000     0.976770000000    -0.0302071  
C33      C      0.708240000000     0.501870000000     0.978740000000     0.0612619  
C34      C      0.654050000000     0.514200000000     0.008940000000    -0.0410794  
C35      C      0.720650000000     0.476500000000     0.002110000000    -0.0561294  
C36      C      0.617270000000     0.528540000000     0.003680000000     0.0370358  
C37      C      0.616900000000     0.498150000000     0.944770000000    -0.00512156 
C38      C      0.767810000000     0.516150000000     0.963600000000    -0.0557271  
C39      C      0.338250000000     0.486590000000     0.034100000000    -0.0304856  
C40      C      0.154200000000     0.453900000000     0.996810000000    -0.0303398  
C41      C      0.116830000000     0.512910000000     0.026540000000    -0.0072638  
C42      C      0.117100000000     0.448700000000     0.010100000000    -0.00637537 
C43      C      0.229860000000     0.462040000000     0.033750000000    -0.0538814  
C44      C      0.259860000000     0.503300000000     0.982110000000    -0.0534728  
C45      C      0.208450000000     0.481810000000     0.011870000000     0.0610772  
C46      C      0.154060000000     0.514910000000     0.013130000000    -0.0300031  
C47      C      0.281350000000     0.484730000000     0.004940000000     0.0613358  
C48      C      0.333610000000     0.465670000000     0.975040000000    -0.0415703  
C49      C      0.265930000000     0.462870000000     0.030010000000    -0.0558557  
C50      C      0.369780000000     0.479340000000     0.965080000000     0.0377967  
C51      C      0.375200000000     0.499990000000     0.028420000000    -0.00602201 
C52      C      0.223800000000     0.501370000000     0.984950000000    -0.0558562  
C53      C      0.440570000000     0.837890000000     0.964950000000    -0.0306037  
C54      C      0.490210000000     0.657740000000     0.996370000000    -0.0302513  
C55      C      0.462410000000     0.610580000000     0.943860000000    -0.00754064 
C56      C      0.481790000000     0.620170000000     0.006500000000    -0.00621875 
C57      C      0.445710000000     0.727400000000     0.986660000000    -0.0535736  
C58      C      0.490080000000     0.759930000000     0.939440000000    -0.053431   
C59      C      0.466740000000     0.706850000000     0.965090000000     0.0610148  
C60      C      0.470610000000     0.649110000000     0.937290000000    -0.030018   
C61      C      0.469010000000     0.780480000000     0.960960000000     0.0613674  
C62      C      0.500570000000     0.830620000000     0.982040000000    -0.0416029  
C63      C      0.447240000000     0.763790000000     0.985220000000    -0.0559119  
C64      C      0.509850000000     0.868330000000     0.972420000000     0.0377961  
C65      C      0.446140000000     0.876360000000     0.955630000000    -0.00625024 
C66      C      0.489580000000     0.723590000000     0.941860000000    -0.055562   
C67      C      0.476720000000     0.156970000000     0.993890000000    -0.0309314  
C68      C      0.514620000000     0.338380000000     0.036620000000    -0.0301419  
C69      C      0.506860000000     0.367350000000     0.966980000000    -0.00654387 
C70      C      0.525590000000     0.376180000000     0.029820000000    -0.00764983 
C71      C      0.535510000000     0.258000000000     0.989290000000    -0.0537483  
C72      C      0.487350000000     0.229190000000     0.035210000000    -0.053558   
C73      C      0.514940000000     0.280220000000     0.009590000000     0.0607915  
C74      C      0.495620000000     0.330540000000     0.977150000000    -0.0302371  
C75      C      0.508230000000     0.206970000000     0.015210000000     0.0610663  
C76      C      0.535050000000     0.148730000000     0.015740000000    -0.0411319  
C77      C      0.531820000000     0.221810000000     0.991460000000    -0.0559404  
C78      C      0.527850000000     0.110560000000     0.025920000000     0.0365678  
C79      C      0.465980000000     0.119950000000     0.004010000000    -0.00510438 
C80      C      0.490080000000     0.265400000000     0.032040000000    -0.0558084  
C81      C      0.536510000000     0.004180000000     0.832980000000    -0.0301132  
C82      C      0.494750000000     0.034300000000     0.648950000000    -0.0303005  
C83      C      0.526700000000     0.977080000000     0.610650000000    -0.0073354  
C84      C      0.506510000000     0.040210000000     0.611390000000    -0.0064257  
C85      C      0.534570000000     0.027740000000     0.723830000000    -0.0538816  
C86      C      0.484720000000     0.985130000000     0.754860000000    -0.053514   
C87      C      0.512860000000     0.007370000000     0.702810000000     0.0611934  
C88      C      0.514630000000     0.974380000000     0.648360000000    -0.0300363  
C89      C      0.507260000000     0.004480000000     0.775950000000     0.0615972  
C90      C      0.477160000000     0.023650000000     0.828050000000    -0.0414665  
C91      C      0.531470000000     0.026900000000     0.760050000000    -0.0559323  
C92      C      0.467310000000     0.009930000000     0.864230000000     0.0377174  
C93      C      0.531140000000     0.991180000000     0.870250000000    -0.00640382 
C94      C      0.486890000000     0.987040000000     0.718690000000    -0.0559263  
C95      C      0.472080000000     0.022840000000     0.328380000000    -0.0309049  
C96      C      0.506700000000     0.971900000000     0.148130000000    -0.0300067  
C97      C      0.442540000000     0.985770000000     0.110490000000    -0.0063033  
C98      C      0.501400000000     0.956770000000     0.111860000000    -0.00674628 
C99      C      0.457090000000     0.965250000000     0.226380000000    -0.0539057  
C100     C      0.504330000000     0.015280000000     0.249700000000    -0.0531461  
C101     C      0.476320000000     0.984430000000     0.202130000000     0.0614207  
C102     C      0.450130000000     0.000160000000     0.146930000000    -0.0304789  
C103     C      0.486700000000     0.994610000000     0.273960000000     0.0614149  
C104     C      0.497920000000     0.965270000000     0.329370000000    -0.0407494  
C105     C      0.461670000000     0.970660000000     0.262020000000    -0.0557752  
C106     C      0.514460000000     0.971250000000     0.365200000000     0.0359257  
C107     C      0.487850000000     0.032360000000     0.363680000000    -0.00475866 
C108     C      0.498790000000     0.010780000000     0.214100000000    -0.0559171  
C109     C      0.956050000000     0.497720000000     0.666000000000    -0.0308607  
C110     C      0.001710000000     0.453660000000     0.845400000000    -0.0299382  
C111     C      0.996270000000     0.520370000000     0.881300000000    -0.0063906  
C112     C      0.016660000000     0.457390000000     0.881940000000    -0.00725089 
C113     C      0.015270000000     0.506660000000     0.767860000000    -0.0539088  
C114     C      0.966930000000     0.460050000000     0.740300000000    -0.05349    
C115     C      0.996140000000     0.485350000000     0.790380000000     0.0612522  
C116     C      0.981650000000     0.513610000000     0.844890000000    -0.0302332  
C117     C      0.987220000000     0.480180000000     0.717710000000     0.0613177  
C118     C      0.015520000000     0.477820000000     0.660550000000    -0.0410466  
C119     C      0.010440000000     0.504720000000     0.731920000000    -0.0558249  
C120     C      0.009810000000     0.465130000000     0.623100000000     0.0367009  
C121     C      0.946880000000     0.485070000000     0.629390000000    -0.00497832 
C122     C      0.970710000000     0.463050000000     0.776290000000    -0.0559231  
C123     C      0.946010000000     0.483850000000     0.345570000000    -0.0308083  
C124     C      0.992810000000     0.517160000000     0.164190000000    -0.0296613  
C125     C      0.983790000000     0.450580000000     0.128710000000    -0.00643842 
C126     C      0.009080000000     0.511770000000     0.128510000000    -0.00735607 
C127     C      0.002220000000     0.469060000000     0.243610000000    -0.0540751  
C128     C      0.951620000000     0.515890000000     0.266410000000    -0.0534972  
C129     C      0.982510000000     0.487430000000     0.219140000000     0.0613625  
C130     C      0.968360000000     0.458860000000     0.164560000000    -0.030376   
C131     C      0.972820000000     0.499170000000     0.290830000000     0.0612462  
C132     C      0.002140000000     0.512700000000     0.345600000000    -0.0412244  
C133     C      0.997060000000     0.474280000000     0.279180000000    -0.0558749  
C134     C      0.996070000000     0.528350000000     0.381860000000     0.0372505  
C135     C      0.936690000000     0.499060000000     0.381160000000    -0.00511471 
C136     C      0.955870000000     0.509660000000     0.230880000000    -0.05616    
C137     C      0.339330000000     0.018160000000     0.507740000000    -0.0308049  
C138     C      0.160280000000     0.977540000000     0.460580000000    -0.029777   
C139     C      0.123310000000     0.990360000000     0.525450000000    -0.00646841 
C140     C      0.122740000000     0.965420000000     0.464230000000    -0.0075154  
C141     C      0.235650000000     0.961920000000     0.514840000000    -0.0538741  
C142     C      0.266270000000     0.009010000000     0.468800000000    -0.0534247  
C143     C      0.214540000000     0.982150000000     0.493110000000     0.0613923  
C144     C      0.160700000000     0.001980000000     0.518740000000    -0.030071   
C145     C      0.287430000000     0.987800000000     0.489510000000     0.0614113  
C146     C      0.343970000000     0.957950000000     0.489870000000    -0.0409513  
C147     C      0.271740000000     0.965090000000     0.513630000000    -0.0557325  
C148     C      0.381410000000     0.962550000000     0.476890000000     0.03643    
C149     C      0.375900000000     0.026760000000     0.494990000000    -0.00481555 
C150     C      0.230190000000     0.006850000000     0.471020000000    -0.0560202  
C151     C      0.663610000000     0.988310000000     0.494090000000    -0.0307896  
C152     C      0.844140000000     0.015640000000     0.447960000000    -0.029766   
C153     C      0.876200000000     0.002720000000     0.515430000000    -0.00620433 
C154     C      0.882420000000     0.024350000000     0.453110000000    -0.00747693 
C155     C      0.768070000000     0.040370000000     0.498460000000    -0.0537805  
C156     C      0.735060000000     0.994470000000     0.452910000000    -0.0535352  
C157     C      0.788100000000     0.018070000000     0.477730000000     0.0615019  
C158     C      0.838340000000     0.994330000000     0.506940000000    -0.0302258  
C159     C      0.715020000000     0.017180000000     0.473170000000     0.0617383  
C160     C      0.658930000000     0.048030000000     0.474580000000    -0.0406562  
C161     C      0.731870000000     0.039570000000     0.496790000000    -0.055848   
C162     C      0.620690000000     0.043520000000     0.463840000000     0.0354828  
C163     C      0.626550000000     0.979810000000     0.483150000000    -0.00468858 
C164     C      0.771150000000     0.994270000000     0.455610000000    -0.0560317  
C165     C      0.970390000000     0.834870000000     0.467290000000    -0.0309276  
C166     C      0.999390000000     0.653960000000     0.521010000000    -0.0299255  
C167     C      0.933250000000     0.618440000000     0.511300000000    -0.00606673 
C168     C      0.993410000000     0.618350000000     0.537500000000    -0.00665519 
C169     C      0.951090000000     0.733960000000     0.526540000000    -0.0541043  
C170     C      0.999540000000     0.755190000000     0.476870000000    -0.0532295  
C171     C      0.970210000000     0.708850000000     0.508380000000     0.0616694  
C172     C      0.941570000000     0.654090000000     0.495360000000    -0.030527   
C173     C      0.982170000000     0.780310000000     0.496730000000     0.0614735  
C174     C      0.994100000000     0.835770000000     0.525710000000    -0.0408781  
C175     C      0.956420000000     0.769430000000     0.520360000000    -0.0558574  
C176     C      0.011850000000     0.871070000000     0.519970000000     0.036839   
C177     C      0.987560000000     0.869680000000     0.458110000000    -0.00466453 
C178     C      0.993170000000     0.719750000000     0.482040000000    -0.0560389  
C179     C      0.019420000000     0.155880000000     0.459710000000    -0.0309227  
C180     C      0.954870000000     0.332930000000     0.494710000000    -0.0295266  
C181     C      0.015940000000     0.376750000000     0.484680000000    -0.00621406 
C182     C      0.954460000000     0.369980000000     0.509120000000    -0.00742774 
C183     C      0.016720000000     0.263240000000     0.508690000000    -0.0537769  
C184     C      0.973380000000     0.228550000000     0.461920000000    -0.053627   
C185     C      0.993010000000     0.282380000000     0.488780000000     0.0615903  
C186     C      0.012450000000     0.339610000000     0.470750000000    -0.0300044  
C187     C      0.995560000000     0.209270000000     0.483390000000     0.0617867  
C188     C      0.993690000000     0.155370000000     0.517070000000    -0.0408762  
C189     C      0.018550000000     0.227040000000     0.505640000000    -0.0562224  
C190     C      0.982750000000     0.117090000000     0.514150000000     0.0365723  
C191     C      0.009690000000     0.117740000000     0.453100000000    -0.0047503  
C192     C      0.972500000000     0.264870000000     0.464020000000    -0.0560785  
Cu1      Cu     0.002160000000     0.993710000000     0.455820000000     0.839877   
Cu2      Cu     0.999540000000     0.994910000000     0.519780000000     0.846224   
Cu3      Cu     0.941520000000     0.493450000000     0.505400000000     0.8399     
Cu4      Cu     0.005130000000     0.498590000000     0.503040000000     0.844223   
Cu5      Cu     0.504340000000     0.971760000000     0.488970000000     0.84777    
Cu6      Cu     0.498540000000     0.035800000000     0.487470000000     0.838931   
Cu7      Cu     0.518780000000     0.990030000000     0.993120000000     0.844034   
Cu8      Cu     0.455530000000     0.997420000000     0.986490000000     0.838742   
Cu9      Cu     0.993290000000     0.452780000000     0.003970000000     0.836884   
Cu10     Cu     0.994910000000     0.517040000000     0.005840000000     0.843659   
Cu11     Cu     0.498000000000     0.498000000000     0.018420000000     0.841647   
Cu12     Cu     0.492510000000     0.489810000000     0.955010000000     0.838856   
H1       H      0.785470000000     0.531310000000     0.947850000000     0.0406251  
H2       H      0.667620000000     0.480960000000     0.928140000000     0.0345223  
H3       H      0.669260000000     0.531880000000     0.026170000000     0.0401294  
H4       H      0.865310000000     0.441250000000     0.018020000000     0.0388254  
H5       H      0.619230000000     0.521310000000     0.927570000000     0.0405272  
H6       H      0.820990000000     0.543260000000     0.013190000000     0.0348151  
H7       H      0.819170000000     0.439390000000     0.975590000000     0.0338518  
H8       H      0.886290000000     0.542740000000     0.011750000000     0.0411085  
H9       H      0.603930000000     0.527300000000     0.029260000000     0.0343095  
H10      H      0.723040000000     0.539750000000     0.940080000000     0.0450112  
H11      H      0.602570000000     0.477670000000     0.930200000000     0.0389175  
H12      H      0.765300000000     0.454260000000     0.026990000000     0.0439075  
H13      H      0.651560000000     0.458700000000     0.966160000000     0.0380672  
H14      H      0.884350000000     0.438100000000     0.975540000000     0.0394738  
H15      H      0.839570000000     0.533230000000     0.971270000000     0.0368675  
H16      H      0.838270000000     0.473520000000     0.949700000000     0.0380612  
H17      H      0.702960000000     0.460360000000     0.016830000000     0.0406974  
H18      H      0.651690000000     0.488780000000     0.022670000000     0.0396926  
H19      H      0.867320000000     0.514450000000     0.043490000000     0.037447   
H20      H      0.208200000000     0.515810000000     0.966590000000     0.0408787  
H21      H      0.325720000000     0.502840000000     0.054500000000     0.0348362  
H22      H      0.316780000000     0.464310000000     0.951500000000     0.0385856  
H23      H      0.117510000000     0.510900000000     0.055360000000     0.0369023  
H24      H      0.374400000000     0.528900000000     0.026610000000     0.0395329  
H25      H      0.168240000000     0.428670000000     0.999320000000     0.033911   
H26      H      0.168100000000     0.535410000000     0.028000000000     0.03485    
H27      H      0.103520000000     0.430190000000     0.992490000000     0.0391094  
H28      H      0.382340000000     0.459300000000     0.948400000000     0.0316876  
H29      H      0.271230000000     0.519480000000     0.962050000000     0.045428   
H30      H      0.390860000000     0.493410000000     0.051790000000     0.0404423  
H31      H      0.218460000000     0.446060000000     0.053940000000     0.0439327  
H32      H      0.339620000000     0.459240000000     0.043680000000     0.0358099  
H33      H      0.103390000000     0.537690000000     0.019970000000     0.0409372  
H34      H      0.153740000000     0.461190000000     0.968780000000     0.0382602  
H35      H      0.153250000000     0.522740000000     0.985290000000     0.037278   
H36      H      0.281500000000     0.447110000000     0.047290000000     0.0403859  
H37      H      0.335850000000     0.438560000000     0.985180000000     0.0399723  
H38      H      0.118190000000     0.436610000000     0.036350000000     0.0388406  
H39      H      0.507160000000     0.708900000000     0.925620000000     0.0410979  
H40      H      0.419370000000     0.827320000000     0.948410000000     0.0353265  
H41      H      0.524090000000     0.813820000000     0.979870000000     0.0390675  
H42      H      0.433870000000     0.607660000000     0.946810000000     0.0388972  
H43      H      0.447780000000     0.878680000000     0.926870000000     0.0404583  
H44      H      0.487810000000     0.674190000000     0.020100000000     0.0342009  
H45      H      0.452970000000     0.658980000000     0.916630000000     0.0351705  
H46      H      0.502040000000     0.610880000000     0.024890000000     0.0404057  
H47      H      0.528170000000     0.878000000000     0.992570000000     0.0328353  
H48      H      0.507710000000     0.772300000000     0.921320000000     0.0457244  
H49      H      0.422960000000     0.891370000000     0.964060000000     0.0411165  
H50      H      0.428650000000     0.715060000000     0.005330000000     0.0441309  
H51      H      0.432230000000     0.836430000000     0.992610000000     0.0365402  
H52      H      0.470180000000     0.595330000000     0.920550000000     0.0417068  
H53      H      0.517500000000     0.659560000000     0.987000000000     0.0392504  
H54      H      0.497790000000     0.651000000000     0.927710000000     0.0372682  
H55      H      0.431480000000     0.778550000000     0.003190000000     0.0406897  
H56      H      0.492190000000     0.829580000000     0.009750000000     0.0404869  
H57      H      0.456530000000     0.619750000000     0.020450000000     0.0392792  
H58      H      0.472760000000     0.281520000000     0.047180000000     0.0405823  
H59      H      0.453200000000     0.173770000000     0.994860000000     0.0341463  
H60      H      0.555790000000     0.159970000000     0.032530000000     0.0398507  
H61      H      0.532540000000     0.365920000000     0.953900000000     0.0384676  
H62      H      0.451510000000     0.120990000000     0.028990000000     0.0402041  
H63      H      0.531200000000     0.327520000000     0.057670000000     0.0347089  
H64      H      0.497460000000     0.313730000000     0.953640000000     0.0338176  
H65      H      0.518780000000     0.392160000000     0.052930000000     0.0407913  
H66      H      0.551130000000     0.095100000000     0.018660000000     0.0339537  
H67      H      0.468380000000     0.218300000000     0.052890000000     0.0445201  
H68      H      0.447920000000     0.109900000000     0.983820000000     0.0396159  
H69      H      0.554040000000     0.268890000000     0.971130000000     0.0437509  
H70      H      0.486740000000     0.157240000000     0.966730000000     0.0381139  
H71      H      0.487870000000     0.377720000000     0.947820000000     0.0401101  
H72      H      0.487240000000     0.338480000000     0.045760000000     0.0368024  
H73      H      0.468070000000     0.330700000000     0.985890000000     0.0384011  
H74      H      0.547500000000     0.205730000000     0.974590000000     0.040467   
H75      H      0.545080000000     0.148730000000     0.988610000000     0.0387775  
H76      H      0.554280000000     0.376990000000     0.027010000000     0.0372707  
H77      H      0.468670000000     0.972110000000     0.703390000000     0.0408819  
H78      H      0.557250000000     0.988230000000     0.820650000000     0.0350259  
H79      H      0.453730000000     0.024490000000     0.811050000000     0.0384964  
H80      H      0.555310000000     0.980770000000     0.610430000000     0.0371361  
H81      H      0.530570000000     0.962200000000     0.869950000000     0.0410088  
H82      H      0.496190000000     0.059670000000     0.662930000000     0.0339608  
H83      H      0.531090000000     0.954840000000     0.661970000000     0.0349463  
H84      H      0.487420000000     0.057540000000     0.598310000000     0.0392586  
H85      H      0.450140000000     0.029640000000     0.876640000000     0.0316661  
H86      H      0.465280000000     0.968510000000     0.766620000000     0.0456396  
H87      H      0.554030000000     0.999000000000     0.886020000000     0.0407604  
H88      H      0.554030000000     0.044300000000     0.712030000000     0.0439831  
H89      H      0.545450000000     0.031750000000     0.833930000000     0.0355382  
H90      H      0.521170000000     0.951940000000     0.597410000000     0.0411283  
H91      H      0.467260000000     0.025340000000     0.649370000000     0.038181   
H92      H      0.487370000000     0.964880000000     0.648410000000     0.0372851  
H93      H      0.548500000000     0.043210000000     0.775340000000     0.0404226  
H94      H      0.486740000000     0.050960000000     0.830220000000     0.0398771  
H95      H      0.531930000000     0.053900000000     0.611640000000     0.0389241  
H96      H      0.512930000000     0.027090000000     0.196080000000     0.0417797  
H97      H      0.469040000000     0.047220000000     0.313000000000     0.0347698  
H98      H      0.513340000000     0.945960000000     0.314190000000     0.0400369  
H99      H      0.426550000000     0.961800000000     0.113090000000     0.0381249  
H100     H      0.511210000000     0.048770000000     0.359300000000     0.0414057  
H101     H      0.523660000000     0.953890000000     0.163160000000     0.0353334  
H102     H      0.425080000000     0.003090000000     0.161000000000     0.0345954  
H103     H      0.526840000000     0.955810000000     0.098290000000     0.041431   
H104     H      0.511350000000     0.946710000000     0.380240000000     0.0348364  
H105     H      0.522880000000     0.034560000000     0.258470000000     0.0454287  
H106     H      0.468720000000     0.048340000000     0.378330000000     0.0397545  
H107     H      0.438970000000     0.945580000000     0.217590000000     0.0443826  
H108     H      0.445880000000     0.011180000000     0.332090000000     0.0387803  
H109     H      0.427170000000     0.005390000000     0.095810000000     0.0400419  
H110     H      0.520230000000     0.997380000000     0.145490000000     0.039225   
H111     H      0.462380000000     0.026370000000     0.144770000000     0.0396487  
H112     H      0.446510000000     0.955290000000     0.280020000000     0.0410239  
H113     H      0.471770000000     0.953690000000     0.333560000000     0.0395113  
H114     H      0.492070000000     0.929490000000     0.114600000000     0.0364761  
H115     H      0.954350000000     0.447260000000     0.792790000000     0.0406484  
H116     H      0.932140000000     0.496580000000     0.682170000000     0.0341365  
H117     H      0.036580000000     0.462510000000     0.673260000000     0.0398531  
H118     H      0.021720000000     0.533760000000     0.878760000000     0.0386375  
H119     H      0.933540000000     0.459460000000     0.631420000000     0.0402887  
H120     H      0.017170000000     0.433830000000     0.831050000000     0.0347491  
H121     H      0.982030000000     0.538630000000     0.830240000000     0.0338592  
H122     H      0.012670000000     0.432470000000     0.896120000000     0.0410557  
H123     H      0.033360000000     0.472180000000     0.607990000000     0.034168   
H124     H      0.948180000000     0.441820000000     0.729870000000     0.0444943  
H125     H      0.928300000000     0.503860000000     0.617650000000     0.0393379  
H126     H      0.034170000000     0.524740000000     0.778280000000     0.0439079  
H127     H      0.964910000000     0.525340000000     0.665030000000     0.0381566  
H128     H      0.978350000000     0.538210000000     0.895350000000     0.0394227  
H129     H      0.974540000000     0.444130000000     0.847710000000     0.0372857  
H130     H      0.954220000000     0.504670000000     0.846770000000     0.0383457  
H131     H      0.025530000000     0.521810000000     0.715490000000     0.0404895  
H132     H      0.024450000000     0.505380000000     0.659200000000     0.0389099  
H133     H      0.045120000000     0.461580000000     0.879770000000     0.0370277  
H134     H      0.939190000000     0.523150000000     0.212740000000     0.0408903  
H135     H      0.921550000000     0.479920000000     0.330710000000     0.0343479  
H136     H      0.020010000000     0.529590000000     0.330250000000     0.0400127  
H137     H      0.007900000000     0.435110000000     0.132320000000     0.0387782  
H138     H      0.920090000000     0.522430000000     0.377270000000     0.040102   
H139     H      0.009040000000     0.536020000000     0.178970000000     0.0348761  
H140     H      0.966430000000     0.434120000000     0.179530000000     0.0341467  
H141     H      0.007710000000     0.536770000000     0.113970000000     0.0412237  
H142     H      0.021080000000     0.526890000000     0.396150000000     0.0341532  
H143     H      0.932080000000     0.534250000000     0.274990000000     0.0447876  
H144     H      0.921160000000     0.479410000000     0.395630000000     0.0398479  
H145     H      0.022130000000     0.451110000000     0.235010000000     0.0441645  
H146     H      0.958740000000     0.458000000000     0.348890000000     0.0382411  
H147     H      0.965040000000     0.434240000000     0.113970000000     0.0389501  
H148     H      0.966550000000     0.528670000000     0.160580000000     0.037462   
H149     H      0.941730000000     0.469710000000     0.161520000000     0.0381142  
H150     H      0.012790000000     0.459680000000     0.297310000000     0.0405249  
H151     H      0.015360000000     0.487170000000     0.349190000000     0.0393074  
H152     H      0.036990000000     0.505420000000     0.132060000000     0.0369688  
H153     H      0.214780000000     0.024020000000     0.454960000000     0.0407001  
H154     H      0.323450000000     0.042350000000     0.506140000000     0.0339     
H155     H      0.330890000000     0.936340000000     0.475590000000     0.0397373  
H156     H      0.123730000000     0.965770000000     0.540760000000     0.0395431  
H157     H      0.373970000000     0.040570000000     0.469650000000     0.0407547  
H158     H      0.173950000000     0.959610000000     0.442430000000     0.0352038  
H159     H      0.174650000000     0.002470000000     0.544070000000     0.0341178  
H160     H      0.109510000000     0.968770000000     0.438770000000     0.0416912  
H161     H      0.396430000000     0.939420000000     0.485630000000     0.0338132  
H162     H      0.277890000000     0.027350000000     0.450850000000     0.0444391  
H163     H      0.388110000000     0.045010000000     0.513840000000     0.0386743  
H164     H      0.224000000000     0.943550000000     0.532740000000     0.0444413  
H165     H      0.340110000000     0.009800000000     0.535460000000     0.0376507  
H166     H      0.110150000000     0.010580000000     0.541430000000     0.0398018  
H167     H      0.160150000000     0.004120000000     0.449020000000     0.0372358  
H168     H      0.160920000000     0.028870000000     0.507810000000     0.0382293  
H169     H      0.287130000000     0.949260000000     0.531020000000     0.0405939  
H170     H      0.345040000000     0.950190000000     0.517750000000     0.0384599  
H171     H      0.122710000000     0.937090000000     0.470310000000     0.0388058  
H172     H      0.785540000000     0.975660000000     0.440240000000     0.0407684  
H173     H      0.679090000000     0.963850000000     0.492610000000     0.0341     
H174     H      0.671520000000     0.068900000000     0.458840000000     0.0397978  
H175     H      0.877220000000     0.027720000000     0.530030000000     0.0400083  
H176     H      0.627220000000     0.965770000000     0.457870000000     0.0414642  
H177     H      0.833180000000     0.033730000000     0.428200000000     0.0351768  
H178     H      0.823040000000     0.996240000000     0.531410000000     0.0340923  
H179     H      0.896580000000     0.017910000000     0.428770000000     0.041558   
H180     H      0.606410000000     0.067100000000     0.472630000000     0.0339341  
H181     H      0.722490000000     0.976350000000     0.435390000000     0.0448892  
H182     H      0.615270000000     0.961780000000     0.502780000000     0.0393964  
H183     H      0.780650000000     0.058150000000     0.516320000000     0.0444923  
H184     H      0.664070000000     0.997540000000     0.521550000000     0.0378885  
H185     H      0.886580000000     0.981940000000     0.532700000000     0.0393518  
H186     H      0.842320000000     0.988560000000     0.437770000000     0.0368184  
H187     H      0.836180000000     0.967110000000     0.497090000000     0.038055   
H188     H      0.717340000000     0.056550000000     0.513830000000     0.040672   
H189     H      0.659430000000     0.056810000000     0.502160000000     0.0383947  
H190     H      0.884950000000     0.052930000000     0.457240000000     0.0392657  
H191     H      0.007170000000     0.701070000000     0.466370000000     0.041538   
H192     H      0.967900000000     0.819270000000     0.443020000000     0.0344167  
H193     H      0.008410000000     0.820330000000     0.545660000000     0.0398823  
H194     H      0.918560000000     0.622470000000     0.535840000000     0.0378863  
H195     H      0.011550000000     0.864440000000     0.442950000000     0.0404505  
H196     H      0.017680000000     0.668930000000     0.537690000000     0.0350949  
H197     H      0.916960000000     0.669080000000     0.493050000000     0.0344354  
H198     H      0.018310000000     0.603750000000     0.537810000000     0.0411584  
H199     H      0.008550000000     0.886400000000     0.544270000000     0.0343113  
H200     H      0.018620000000     0.763170000000     0.457800000000     0.0449461  
H201     H      0.969630000000     0.884730000000     0.441130000000     0.0389116  
H202     H      0.932510000000     0.725980000000     0.546090000000     0.0440534  
H203     H      0.943860000000     0.839490000000     0.477800000000     0.0379998  
H204     H      0.916400000000     0.603730000000     0.492980000000     0.0402655  
H205     H      0.011610000000     0.649930000000     0.495120000000     0.0389411  
H206     H      0.952570000000     0.650610000000     0.468810000000     0.0398812  
H207     H      0.941370000000     0.788100000000     0.535030000000     0.0405427  
H208     H      0.967710000000     0.840920000000     0.536270000000     0.0390462  
H209     H      0.985390000000     0.622310000000     0.564980000000     0.0362776  
H210     H      0.955010000000     0.278950000000     0.447130000000     0.040667   
H211     H      0.020220000000     0.169610000000     0.434230000000     0.0341806  
H212     H      0.976170000000     0.169590000000     0.535280000000     0.0399682  
H213     H      0.032530000000     0.376300000000     0.508320000000     0.0404132  
H214     H      0.986590000000     0.116940000000     0.435810000000     0.0406595  
H215     H      0.938040000000     0.316330000000     0.511410000000     0.0351142  
H216     H      0.038860000000     0.327990000000     0.469110000000     0.0338927  
H217     H      0.928270000000     0.381280000000     0.504670000000     0.0411687  
H218     H      0.988320000000     0.104590000000     0.539620000000     0.0340704  
H219     H      0.956260000000     0.215270000000     0.443960000000     0.044941   
H220     H      0.031400000000     0.104850000000     0.439030000000     0.0382763  
H221     H      0.033460000000     0.276460000000     0.527060000000     0.0445298  
H222     H      0.045740000000     0.157440000000     0.471560000000     0.0372836  
H223     H      0.029480000000     0.392880000000     0.464840000000     0.0390209  
H224     H      0.943700000000     0.333350000000     0.468030000000     0.0361627  
H225     H      0.001190000000     0.340010000000     0.444080000000     0.0373707  
H226     H      0.036980000000     0.213030000000     0.521550000000     0.0406806  
H227     H      0.020180000000     0.156190000000     0.528570000000     0.0386007  
H228     H      0.958470000000     0.368800000000     0.537720000000     0.0394768  
N1       N      0.598420000000     0.508340000000     0.976850000000    -0.171153   
N2       N      0.671710000000     0.509740000000     0.975240000000    -0.110497   
N3       N      0.816580000000     0.490040000000     0.998010000000    -0.113245   
N4       N      0.889570000000     0.487660000000     0.001040000000    -0.167096   
N5       N      0.391360000000     0.486220000000     0.996270000000    -0.170676   
N6       N      0.318520000000     0.488710000000     0.001460000000    -0.110141   
N7       N      0.171350000000     0.480970000000     0.017560000000    -0.113276   
N8       N      0.098370000000     0.482170000000     0.012650000000    -0.167366   
N9       N      0.478450000000     0.890570000000     0.970880000000    -0.170528   
N10      N      0.472750000000     0.818000000000     0.959200000000    -0.110147   
N11      N      0.465830000000     0.669350000000     0.969470000000    -0.112937   
N12      N      0.479280000000     0.597280000000     0.975720000000    -0.166607   
N13      N      0.496430000000     0.096910000000     0.008360000000    -0.170749   
N14      N      0.503100000000     0.169690000000     0.018310000000    -0.110369   
N15      N      0.518490000000     0.317500000000     0.004720000000    -0.113216   
N16      N      0.509890000000     0.390270000000     0.997690000000    -0.166968   
N17      N      0.498420000000     0.003820000000     0.886120000000    -0.170503   
N18      N      0.504020000000     0.001010000000     0.813260000000    -0.110074   
N19      N      0.517560000000     0.008560000000     0.665520000000    -0.113301   
N20      N      0.510510000000     0.006910000000     0.592560000000    -0.167361   
N21      N      0.498150000000     0.001010000000     0.383540000000    -0.170626   
N22      N      0.495230000000     0.998470000000     0.310360000000    -0.110315   
N23      N      0.472960000000     0.975920000000     0.165680000000    -0.113536   
N24      N      0.475120000000     0.976880000000     0.092490000000    -0.167618   
N25      N      0.978270000000     0.480910000000     0.607710000000    -0.171337   
N26      N      0.983090000000     0.475180000000     0.680660000000    -0.11039    
N27      N      0.003130000000     0.487430000000     0.827270000000    -0.113391   
N28      N      0.001390000000     0.487430000000     0.900460000000    -0.167633   
N29      N      0.968220000000     0.509410000000     0.400470000000    -0.171359   
N30      N      0.968940000000     0.508150000000     0.327120000000    -0.110524   
N31      N      0.990980000000     0.483670000000     0.182740000000    -0.113466   
N32      N      0.992390000000     0.482770000000     0.109560000000    -0.1675     
N33      N      0.397340000000     0.995110000000     0.490250000000    -0.171079   
N34      N      0.324620000000     0.990760000000     0.485670000000    -0.110365   
N35      N      0.177380000000     0.977370000000     0.494800000000    -0.113276   
N36      N      0.104650000000     0.984020000000     0.492550000000    -0.167292   
N37      N      0.605240000000     0.011620000000     0.479150000000    -0.170908   
N38      N      0.677690000000     0.014830000000     0.470570000000    -0.110335   
N39      N      0.825430000000     0.019310000000     0.481120000000    -0.113081   
N40      N      0.897270000000     0.006230000000     0.483580000000    -0.167227   
N41      N      0.996860000000     0.889560000000     0.489680000000    -0.171604   
N42      N      0.991990000000     0.816420000000     0.492720000000    -0.110436   
N43      N      0.966150000000     0.672670000000     0.517900000000    -0.113605   
N44      N      0.965540000000     0.599440000000     0.519210000000    -0.168051   
N45      N      0.001420000000     0.098990000000     0.485660000000    -0.171418   
N46      N      0.993350000000     0.171730000000     0.482490000000    -0.110478   
N47      N      0.990580000000     0.319490000000     0.494550000000    -0.113017   
N48      N      0.981970000000     0.392070000000     0.493870000000    -0.167267   
O1       O      0.008220000000     0.046290000000     0.458260000000    -0.397801   
O2       O      0.995500000000     0.941290000000     0.459780000000    -0.397778   
O3       O      0.950070000000     0.000800000000     0.456760000000    -0.398945   
O4       O      0.054050000000     0.986860000000     0.461370000000    -0.398779   
O5       O      0.052220000000     0.994160000000     0.518810000000    -0.398247   
O6       O      0.947120000000     0.995710000000     0.514400000000    -0.397994   
O7       O      0.999480000000     0.942220000000     0.517570000000    -0.40068    
O8       O      0.999690000000     0.047420000000     0.515550000000    -0.400709   
O9       O      0.949020000000     0.441200000000     0.501850000000    -0.398423   
O10      O      0.940540000000     0.546270000000     0.508880000000    -0.398075   
O11      O      0.942420000000     0.497110000000     0.452770000000    -0.398517   
O12      O      0.946960000000     0.490170000000     0.557840000000    -0.398002   
O13      O      0.004650000000     0.488310000000     0.554770000000    -0.39876    
O14      O      0.999130000000     0.508190000000     0.451460000000    -0.398525   
O15      O      0.998060000000     0.549880000000     0.513390000000    -0.400101   
O16      O      0.005950000000     0.446690000000     0.493350000000    -0.3993     
O17      O      0.556140000000     0.979150000000     0.487220000000    -0.401231   
O18      O      0.451640000000     0.970510000000     0.490090000000    -0.398821   
O19      O      0.502900000000     0.973590000000     0.436310000000    -0.398214   
O20      O      0.506450000000     0.976330000000     0.541490000000    -0.399659   
O21      O      0.502910000000     0.034300000000     0.540100000000    -0.398064   
O22      O      0.494310000000     0.031030000000     0.435010000000    -0.39674    
O23      O      0.446710000000     0.028360000000     0.492030000000    -0.399012   
O24      O      0.551190000000     0.036850000000     0.482600000000    -0.396096   
O25      O      0.509570000000     0.981730000000     0.044270000000    -0.399304   
O26      O      0.521710000000     0.997770000000     0.940860000000    -0.397705   
O27      O      0.520430000000     0.042380000000     0.001970000000    -0.396938   
O28      O      0.511020000000     0.938670000000     0.984290000000    -0.398367   
O29      O      0.453870000000     0.944850000000     0.978220000000    -0.395257   
O30      O      0.463480000000     0.049030000000     0.994670000000    -0.397996   
O31      O      0.464590000000     0.004550000000     0.935130000000    -0.397181   
O32      O      0.452590000000     0.989920000000     0.038820000000    -0.397233   
O33      O      0.989130000000     0.454820000000     0.056820000000    -0.396286   
O34      O      0.997990000000     0.457160000000     0.951680000000    -0.398795   
O35      O      0.045850000000     0.454460000000     0.007860000000    -0.397527   
O36      O      0.940910000000     0.457390000000     0.999680000000    -0.39736    
O37      O      0.942260000000     0.515210000000     0.004980000000    -0.39864    
O38      O      0.047360000000     0.512530000000     0.007560000000    -0.398589   
O39      O      0.995800000000     0.515190000000     0.952990000000    -0.398507   
O40      O      0.994300000000     0.512660000000     0.058170000000    -0.400993   
O41      O      0.505170000000     0.445330000000     0.021010000000    -0.396396   
O42      O      0.490880000000     0.549570000000     0.009610000000    -0.398026   
O43      O      0.445660000000     0.491780000000     0.020370000000    -0.398529   
O44      O      0.549400000000     0.504730000000     0.010250000000    -0.399865   
O45      O      0.545060000000     0.496040000000     0.953130000000    -0.396142   
O46      O      0.440850000000     0.484010000000     0.963170000000    -0.396296   
O47      O      0.485520000000     0.542440000000     0.952370000000    -0.395474   
O48      O      0.499200000000     0.438220000000     0.963830000000    -0.398865   
S1       S      0.618580000000     0.569130000000     0.992460000000    -0.017814   
S2       S      0.366310000000     0.514620000000     0.942250000000    -0.0128665  
S3       S      0.529830000000     0.869620000000     0.935460000000    -0.0135458  
S4       S      0.523190000000     0.107160000000     0.067550000000    -0.0164311  
S5       S      0.445310000000     0.974130000000     0.860720000000    -0.0113602  
S6       S      0.555640000000     0.978280000000     0.361300000000    -0.0120294  
S7       S      0.006480000000     0.423140000000     0.622070000000    -0.0165739  
S8       S      0.985910000000     0.569120000000     0.378920000000    -0.0182667  
S9       S      0.382310000000     0.962830000000     0.434840000000    -0.0146397  
S10      S      0.617410000000     0.041840000000     0.421960000000    -0.0109712  
S11      S      0.053080000000     0.865910000000     0.514130000000    -0.0164863  
S12      S      0.941360000000     0.114240000000     0.507700000000    -0.014833   


