data_structure

_audit_creation_method RASPA-1.0
_audit_creation_date 2023-5-25
_audit_author_name 'Poobodin Mano'

_cell_length_a    35.0052
_cell_length_b    36.449
_cell_length_c    37.6156
_cell_angle_alpha 90
_cell_angle_beta  90
_cell_angle_gamma 90
_cell_volume      47993.9

_symmetry_cell_setting          triclinic
_symmetry_space_group_name_Hall 'P 1'
_symmetry_space_group_name_H-M  'P 1'
_symmetry_Int_Tables_number     1

_symmetry_equiv_pos_as_xyz 'x,y,z'

loop_
_atom_site_label
_atom_site_type_symbol
_atom_site_fract_x
_atom_site_fract_y
_atom_site_fract_z
_atom_site_charge
C1       C      0.126680000000     0.000420000000     0.056610000000     0.304674   
C2       C      0.004330000000     0.041640000000     0.984370000000     0.310855   
C3       C      0.048180000000     0.951540000000     0.008470000000     0.312592   
C4       C      0.082830000000     0.090650000000     0.032510000000     0.303971   
C5       C      0.119620000000     0.085530000000     0.629860000000     0.305563   
C6       C      0.034940000000     0.981010000000     0.572290000000     0.317992   
C7       C      0.036400000000     0.083550000000     0.567600000000     0.324788   
C8       C      0.118280000000     0.982950000000     0.634440000000     0.312425   
C9       C      0.079780000000     0.518190000000     0.092610000000     0.484748   
C10      C      0.049990000000     0.523110000000     0.960740000000     0.477722   
C11      C      0.135060000000     0.516170000000     0.012670000000     0.378716   
C12      C      0.994190000000     0.520450000000     0.040900000000     0.373853   
C13      C      0.964560000000     0.535860000000     0.514870000000     0.377984   
C14      C      0.102620000000     0.506640000000     0.540870000000     0.364846   
C15      C      0.045520000000     0.519890000000     0.460750000000     0.473232   
C16      C      0.018160000000     0.525130000000     0.593020000000     0.484157   
C17      C      0.541580000000     0.013790000000     0.091810000000     0.489009   
C18      C      0.534860000000     0.000040000000     0.957540000000     0.479626   
C19      C      0.536650000000     0.937360000000     0.032480000000     0.491208   
C20      C      0.545070000000     0.075550000000     0.019680000000     0.485821   
C21      C      0.542830000000     0.008890000000     0.460640000000     0.481856   
C22      C      0.530980000000     0.040950000000     0.591700000000     0.476819   
C23      C      0.534530000000     0.093380000000     0.508710000000     0.478814   
C24      C      0.540860000000     0.957840000000     0.540170000000     0.479952   
C25      C      0.548200000000     0.447600000000     0.937550000000     0.483758   
C26      C      0.543840000000     0.585300000000     0.919580000000     0.488869   
C27      C      0.542890000000     0.506730000000     0.863740000000     0.481409   
C28      C      0.549100000000     0.525840000000     0.997520000000     0.475159   
C29      C      0.533370000000     0.471850000000     0.450950000000     0.478731   
C30      C      0.547530000000     0.607350000000     0.422000000000     0.474091   
C31      C      0.538720000000     0.525050000000     0.368290000000     0.479698   
C32      C      0.536050000000     0.555600000000     0.500200000000     0.475146   
C33      C      0.573980000000     0.517130000000     0.771370000000    -0.027309   
C34      C      0.500260000000     0.550170000000     0.590720000000    -0.031879   
C35      C      0.571110000000     0.570960000000     0.555500000000    -0.00197593 
C36      C      0.499230000000     0.570070000000     0.554850000000    -0.0024816  
C37      C      0.535750000000     0.571140000000     0.674760000000    -0.0507323  
C38      C      0.536510000000     0.495730000000     0.688500000000    -0.052007   
C39      C      0.535010000000     0.546360000000     0.646330000000     0.0621748  
C40      C      0.570010000000     0.550810000000     0.591100000000    -0.0319407  
C41      C      0.537450000000     0.520520000000     0.716920000000     0.0670535  
C42      C      0.504430000000     0.516200000000     0.773220000000    -0.0206406  
C43      C      0.536940000000     0.558460000000     0.709790000000    -0.056184   
C44      C      0.504320000000     0.496750000000     0.809450000000    -0.00979427 
C45      C      0.576870000000     0.496790000000     0.806810000000    -0.0017221  
C46      C      0.535330000000     0.508410000000     0.653450000000    -0.0533384  
C47      C      0.577300000000     0.522660000000     0.276910000000    -0.0279683  
C48      C      0.514980000000     0.524520000000     0.090740000000    -0.0311377  
C49      C      0.586160000000     0.537480000000     0.052410000000    -0.0030372  
C50      C      0.513640000000     0.539230000000     0.052720000000    -0.00312118 
C51      C      0.548810000000     0.559370000000     0.169970000000    -0.0509785  
C52      C      0.546360000000     0.487670000000     0.196330000000    -0.0509038  
C53      C      0.549390000000     0.529810000000     0.146170000000     0.0626635  
C54      C      0.584280000000     0.523090000000     0.090680000000    -0.0314081  
C55      C      0.545520000000     0.517240000000     0.220110000000     0.0665008  
C56      C      0.508030000000     0.524430000000     0.273870000000    -0.0203538  
C57      C      0.546940000000     0.553270000000     0.206620000000    -0.055767   
C58      C      0.503960000000     0.511210000000     0.312540000000    -0.00990208 
C59      C      0.576630000000     0.508580000000     0.315200000000    -0.000789106
C60      C      0.548300000000     0.493770000000     0.159650000000    -0.0535057  
C61      C      0.581610000000     0.870330000000     0.522020000000    -0.0275968  
C62      C      0.517130000000     0.698460000000     0.439760000000    -0.0318243  
C63      C      0.587760000000     0.663320000000     0.417050000000    -0.003039   
C64      C      0.516600000000     0.667800000000     0.412000000000    -0.00220251 
C65      C      0.554580000000     0.785170000000     0.444940000000    -0.0520512  
C66      C      0.550070000000     0.779300000000     0.518970000000    -0.0516789  
C67      C      0.553610000000     0.750390000000     0.460700000000     0.0622499  
C68      C      0.586830000000     0.694300000000     0.444580000000    -0.0313465  
C69      C      0.550880000000     0.814100000000     0.503190000000     0.0659731  
C70      C      0.511810000000     0.865890000000     0.519890000000    -0.0197287  
C71      C      0.553140000000     0.816810000000     0.465870000000    -0.0565622  
C72      C      0.507580000000     0.898030000000     0.546070000000    -0.0101484  
C73      C      0.579510000000     0.901510000000     0.549160000000    -0.00153278 
C74      C      0.551350000000     0.747640000000     0.498010000000    -0.0540548  
C75      C      0.563240000000     0.190920000000     0.497950000000    -0.027753   
C76      C      0.493740000000     0.377380000000     0.459010000000    -0.032236   
C77      C      0.564640000000     0.416330000000     0.474370000000    -0.00102957 
C78      C      0.492550000000     0.418790000000     0.466020000000    -0.000499981
C79      C      0.521660000000     0.302190000000     0.510490000000    -0.0514678  
C80      C      0.529040000000     0.262730000000     0.447110000000    -0.0504396  
C81      C      0.524570000000     0.321140000000     0.478200000000     0.0626762  
C82      C      0.562470000000     0.375250000000     0.466660000000    -0.0318752  
C83      C      0.526640000000     0.243810000000     0.479460000000     0.0667236  
C84      C      0.494350000000     0.186590000000     0.492830000000    -0.0206206  
C85      C      0.522650000000     0.263870000000     0.511240000000    -0.0562464  
C86      C      0.495860000000     0.145040000000     0.486030000000    -0.00928873 
C87      C      0.568470000000     0.149860000000     0.491160000000    -0.00112531 
C88      C      0.528050000000     0.301070000000     0.446370000000    -0.0534496  
C89      C      0.568170000000     0.846660000000     0.011940000000    -0.0292707  
C90      C      0.503610000000     0.673120000000     0.935050000000    -0.0321326  
C91      C      0.577550000000     0.644710000000     0.912480000000    -0.00150166 
C92      C      0.506280000000     0.641810000000     0.908170000000     0.00181878 
C93      C      0.533910000000     0.763230000000     0.937810000000    -0.0475679  
C94      C      0.532300000000     0.758550000000     0.012050000000    -0.050889   
C95      C      0.534770000000     0.728810000000     0.954230000000     0.0643456  
C96      C      0.573550000000     0.676290000000     0.938940000000    -0.0310146  
C97      C      0.532190000000     0.793000000000     0.995640000000     0.0702277  
C98      C      0.498160000000     0.847750000000     0.013210000000    -0.0216095  
C99      C      0.532530000000     0.795150000000     0.958240000000    -0.0558414  
C100     C      0.498270000000     0.880580000000     0.038850000000    -0.0112264  
C101     C      0.570360000000     0.878000000000     0.038670000000     0.000943902
C102     C      0.533470000000     0.726600000000     0.991610000000    -0.0514551  
C103     C      0.514500000000     0.170280000000     0.999770000000    -0.0273613  
C104     C      0.584970000000     0.355300000000     0.960220000000    -0.0312248  
C105     C      0.513770000000     0.388590000000     0.936160000000    -0.00296177 
C106     C      0.586270000000     0.390640000000     0.938410000000    -0.00205842 
C107     C      0.551820000000     0.267140000000     0.942640000000    -0.0521487  
C108     C      0.551050000000     0.256210000000     0.016240000000    -0.0528661  
C109     C      0.551650000000     0.297460000000     0.965460000000     0.0627493  
C110     C      0.515640000000     0.353480000000     0.958220000000    -0.0308207  
C111     C      0.551100000000     0.225890000000     0.993410000000     0.065915   
C112     C      0.583840000000     0.167730000000     0.999080000000    -0.0202374  
C113     C      0.551490000000     0.231570000000     0.956380000000    -0.0566414  
C114     C      0.584430000000     0.131770000000     0.020290000000    -0.0140664  
C115     C      0.511630000000     0.135070000000     0.021540000000    -0.00250198 
C116     C      0.551240000000     0.291790000000     0.002490000000    -0.0540243  
C117     C      0.564250000000     0.012940000000     0.864550000000    -0.0289174  
C118     C      0.492670000000     0.032900000000     0.681650000000    -0.0334174  
C119     C      0.562440000000     0.059250000000     0.648000000000    -0.000857055
C120     C      0.490940000000     0.051480000000     0.645150000000    -3.60981e-06
C121     C      0.522270000000     0.060230000000     0.766040000000    -0.052485   
C122     C      0.530310000000     0.985810000000     0.782520000000    -0.0506733  
C123     C      0.525220000000     0.034510000000     0.738500000000     0.0629552  
C124     C      0.561840000000     0.040270000000     0.684250000000    -0.0324108  
C125     C      0.527650000000     0.011560000000     0.810050000000     0.0633218  
C126     C      0.495080000000     0.006490000000     0.866800000000    -0.0227618  
C127     C      0.523460000000     0.048970000000     0.801550000000    -0.0551453  
C128     C      0.496840000000     0.987570000000     0.903310000000    -0.013417   
C129     C      0.569050000000     0.993660000000     0.900360000000    -0.000768242
C130     C      0.529120000000     0.997060000000     0.747010000000    -0.0540242  
C131     C      0.580090000000     0.008740000000     0.183360000000    -0.0299739  
C132     C      0.512750000000     0.003140000000     0.367660000000    -0.0338656  
C133     C      0.582840000000     0.993470000000     0.408440000000     0.000399207
C134     C      0.510890000000     0.988230000000     0.405560000000     0.00191886 
C135     C      0.549810000000     0.971630000000     0.289310000000    -0.0495935  
C136     C      0.548140000000     0.043910000000     0.264400000000    -0.0508618  
C137     C      0.549670000000     0.000690000000     0.313640000000     0.0621045  
C138     C      0.582100000000     0.007870000000     0.370230000000    -0.0333042  
C139     C      0.548250000000     0.014840000000     0.240080000000     0.0682903  
C140     C      0.510870000000     0.010760000000     0.186230000000    -0.0215776  
C141     C      0.549000000000     0.978510000000     0.252800000000    -0.0563378  
C142     C      0.507620000000     0.025610000000     0.148160000000    -0.0104229  
C143     C      0.580570000000     0.023980000000     0.145550000000     0.00072185 
C144     C      0.548730000000     0.037030000000     0.300920000000    -0.0519506  
C145     C      0.860680000000     0.435530000000     0.512810000000    -0.019954   
C146     C      0.688570000000     0.494630000000     0.416370000000    -0.0201121  
C147     C      0.645590000000     0.525560000000     0.474250000000    -0.0268655  
C148     C      0.645450000000     0.501060000000     0.413720000000    -0.0266175  
C149     C      0.745300000000     0.441180000000     0.471500000000    -0.05126    
C150     C      0.806260000000     0.487760000000     0.454980000000    -0.0509379  
C151     C      0.737900000000     0.476220000000     0.457920000000     0.0629494  
C152     C      0.688630000000     0.518770000000     0.476480000000    -0.0199389  
C153     C      0.813640000000     0.452800000000     0.468850000000     0.0673133  
C154     C      0.863900000000     0.410380000000     0.452450000000    -0.0149924  
C155     C      0.782800000000     0.429440000000     0.476930000000    -0.0562515  
C156     C      0.906810000000     0.402520000000     0.456510000000    -0.0282662  
C157     C      0.903410000000     0.429140000000     0.518300000000    -0.0248954  
C158     C      0.768710000000     0.499490000000     0.449490000000    -0.0537909  
C159     C      0.195650000000     0.594280000000     0.500140000000    -0.0251103  
C160     C      0.389940000000     0.589970000000     0.426600000000    -0.0213495  
C161     C      0.425420000000     0.527560000000     0.459830000000    -0.0238319  
C162     C      0.433370000000     0.585620000000     0.428270000000    -0.0236398  
C163     C      0.319400000000     0.600240000000     0.488850000000    -0.0519703  
C164     C      0.267160000000     0.576000000000     0.437740000000    -0.0510561  
C165     C      0.332250000000     0.578900000000     0.460310000000     0.0630259  
C166     C      0.381940000000     0.532150000000     0.457840000000    -0.0214438  
C167     C      0.254360000000     0.597620000000     0.466150000000     0.0664534  
C168     C      0.209250000000     0.647790000000     0.462730000000    -0.0148118  
C169     C      0.280850000000     0.609630000000     0.491830000000    -0.056303   
C170     C      0.166550000000     0.657220000000     0.460260000000    -0.0321187  
C171     C      0.152680000000     0.601820000000     0.498300000000    -0.0196122  
C172     C      0.305800000000     0.566690000000     0.434710000000    -0.0537969  
C173     C      0.700660000000     0.484300000000     0.921160000000    -0.0212833  
C174     C      0.900830000000     0.542540000000     0.939410000000    -0.0243703  
C175     C      0.938200000000     0.471850000000     0.949110000000    -0.0240417  
C176     C      0.941880000000     0.540340000000     0.953160000000    -0.0252856  
C177     C      0.812790000000     0.507590000000     0.968370000000    -0.0521465  
C178     C      0.787590000000     0.519780000000     0.898820000000    -0.0522414  
C179     C      0.839570000000     0.511460000000     0.940980000000     0.0632627  
C180     C      0.897350000000     0.475460000000     0.935070000000    -0.0257966  
C181     C      0.760830000000     0.516470000000     0.926300000000     0.0638247  
C182     C      0.701670000000     0.549330000000     0.937690000000    -0.0181766  
C183     C      0.773700000000     0.509810000000     0.961180000000    -0.0553868  
C184     C      0.660480000000     0.553970000000     0.924420000000    -0.0205858  
C185     C      0.659420000000     0.488230000000     0.908040000000    -0.0111487  
C186     C      0.826660000000     0.517070000000     0.905930000000    -0.0546934  
C187     C      0.394900000000     0.479120000000     0.951050000000    -0.0218246  
C188     C      0.189580000000     0.509510000000     0.923970000000    -0.025321   
C189     C      0.163390000000     0.434190000000     0.932420000000    -0.0214523  
C190     C      0.149010000000     0.498390000000     0.913270000000    -0.023873   
C191     C      0.281920000000     0.478680000000     0.901230000000    -0.0509173  
C192     C      0.305540000000     0.512190000000     0.964410000000    -0.0504357  
C193     C      0.254870000000     0.487260000000     0.927350000000     0.0631618  
C194     C      0.203270000000     0.446640000000     0.943690000000    -0.0266452  
C195     C      0.332530000000     0.503940000000     0.938140000000     0.0679943  
C196     C      0.388870000000     0.536310000000     0.917150000000    -0.0161217  
C197     C      0.320510000000     0.486630000000     0.906580000000    -0.0568479  
C198     C      0.429640000000     0.547350000000     0.927640000000    -0.01597    
C199     C      0.435650000000     0.489590000000     0.961730000000    -0.00814777 
C200     C      0.267030000000     0.503680000000     0.959300000000    -0.0530034  
C201     C      0.020190000000     0.559290000000     0.684720000000    -0.0279733  
C202     C      0.021470000000     0.493380000000     0.868940000000    -0.0314705  
C203     C      0.046890000000     0.559560000000     0.905970000000    -0.00316484 
C204     C      0.040900000000     0.489110000000     0.905020000000    -0.000508211
C205     C      0.057100000000     0.523090000000     0.788700000000    -0.0528601  
C206     C      0.981700000000     0.531130000000     0.765390000000    -0.0522104  
C207     C      0.027670000000     0.526550000000     0.813620000000     0.0624417  
C208     C      0.027250000000     0.559320000000     0.869720000000    -0.0301324  
C209     C      0.011200000000     0.527730000000     0.740430000000     0.0629113  
C210     C      0.010750000000     0.493100000000     0.685760000000    -0.0230323  
C211     C      0.049080000000     0.523610000000     0.752400000000    -0.0556997  
C212     C      0.996490000000     0.492830000000     0.647160000000    -0.0132656  
C213     C      0.005200000000     0.562130000000     0.646740000000    -0.00187157 
C214     C      0.989750000000     0.530500000000     0.801790000000    -0.0551312  
C215     C      0.074300000000     0.485080000000     0.184610000000    -0.0268493  
C216     C      0.072870000000     0.550090000000     0.369160000000    -0.0310112  
C217     C      0.040750000000     0.485800000000     0.404540000000    -0.00364448 
C218     C      0.054290000000     0.554850000000     0.405590000000    -0.00404964 
C219     C      0.035680000000     0.523670000000     0.287560000000    -0.0496871  
C220     C      0.111090000000     0.512120000000     0.265670000000    -0.0489188  
C221     C      0.064360000000     0.518850000000     0.313040000000     0.0654064  
C222     C      0.060150000000     0.484910000000     0.368190000000    -0.0302312  
C223     C      0.082380000000     0.517050000000     0.240180000000     0.0680962  
C224     C      0.084570000000     0.551120000000     0.185140000000    -0.020883   
C225     C      0.044460000000     0.522760000000     0.251410000000    -0.0547436  
C226     C      0.100280000000     0.550760000000     0.147050000000    -0.0087362  
C227     C      0.090280000000     0.481590000000     0.147000000000    -0.00141927 
C228     C      0.102260000000     0.512930000000     0.301890000000    -0.0521504  
C229     C      0.070580000000     0.862260000000     0.517280000000    -0.0208376  
C230     C      0.074400000000     0.665190000000     0.559940000000    -0.0237206  
C231     C      0.031140000000     0.631910000000     0.503420000000    -0.0176625  
C232     C      0.059090000000     0.625930000000     0.562230000000    -0.0184972  
C233     C      0.035340000000     0.751720000000     0.548940000000    -0.0517572  
C234     C      0.107000000000     0.773750000000     0.523930000000    -0.0500476  
C235     C      0.060800000000     0.725370000000     0.535820000000     0.0643369  
C236     C      0.046190000000     0.671290000000     0.500720000000    -0.0244464  
C237     C      0.081740000000     0.800040000000     0.537550000000     0.0663351  
C238     C      0.096540000000     0.850760000000     0.576760000000    -0.0158665  
C239     C      0.045570000000     0.788770000000     0.549790000000    -0.0555683  
C240     C      0.114150000000     0.889340000000     0.578210000000    -0.0264665  
C241     C      0.088210000000     0.900690000000     0.516620000000    -0.0231071  
C242     C      0.096700000000     0.736700000000     0.522940000000    -0.0537963  
C243     C      0.994790000000     0.182600000000     0.513300000000    -0.0212211  
C244     C      0.991290000000     0.378300000000     0.559830000000    -0.0227488  
C245     C      0.041740000000     0.410470000000     0.508160000000    -0.0179706  
C246     C      0.004760000000     0.418260000000     0.561970000000    -0.0202965  
C247     C      0.029350000000     0.290690000000     0.553740000000    -0.0509816  
C248     C      0.961180000000     0.270850000000     0.520040000000    -0.0497444  
C249     C      0.006740000000     0.317850000000     0.537840000000     0.0640895  
C250     C      0.027440000000     0.370990000000     0.504460000000    -0.0222833  
C251     C      0.983550000000     0.243800000000     0.536270000000     0.067856   
C252     C      0.964000000000     0.190880000000     0.571180000000    -0.0129642  
C253     C      0.018030000000     0.253890000000     0.552890000000    -0.0559674  
C254     C      0.944000000000     0.153500000000     0.568200000000    -0.029349   
C255     C      0.975290000000     0.145370000000     0.508210000000    -0.0230218  
C256     C      0.972610000000     0.307540000000     0.520630000000    -0.053989   
C257     C      0.885430000000     0.038080000000     0.592450000000    -0.0205684  
C258     C      0.693990000000     0.004310000000     0.519260000000    -0.0235097  
C259     C      0.644890000000     0.047300000000     0.564370000000    -0.0184538  
C260     C      0.650820000000     0.998130000000     0.521150000000    -0.0196702  
C261     C      0.768980000000     0.999440000000     0.578030000000    -0.048192   
C262     C      0.808780000000     0.047760000000     0.533700000000    -0.0492059  
C263     C      0.748680000000     0.022030000000     0.554590000000     0.0622409  
C264     C      0.688170000000     0.053540000000     0.563090000000    -0.0235747  
C265     C      0.829080000000     0.025180000000     0.557180000000     0.0731617  
C266     C      0.887900000000     0.992890000000     0.544180000000    -0.0150902  
C267     C      0.808840000000     0.000850000000     0.579350000000    -0.0580884  
C268     C      0.931420000000     0.997460000000     0.540890000000    -0.025145   
C269     C      0.928480000000     0.044590000000     0.589790000000    -0.0177012  
C270     C      0.768910000000     0.046260000000     0.532310000000    -0.0508102  
C271     C      0.197970000000     0.960640000000     0.473350000000    -0.0242952  
C272     C      0.379670000000     0.041760000000     0.533620000000    -0.0248093  
C273     C      0.430160000000     0.983860000000     0.511190000000    -0.0176193  
C274     C      0.421660000000     0.039770000000     0.545120000000    -0.0134874  
C275     C      0.299260000000     0.984640000000     0.536050000000    -0.0466754  
C276     C      0.273730000000     0.021260000000     0.475170000000    -0.0514923  
C277     C      0.325250000000     0.004880000000     0.515640000000     0.0628145  
C278     C      0.388580000000     0.985230000000     0.498960000000    -0.0220237  
C279     C      0.247860000000     0.000690000000     0.495360000000     0.069997   
C280     C      0.181720000000     0.014580000000     0.509340000000    -0.024506   
C281     C      0.260860000000     0.982490000000     0.526080000000    -0.0584615  
C282     C      0.141290000000     0.015680000000     0.493470000000    -0.0123546  
C283     C      0.158430000000     0.960830000000     0.456010000000    -0.0193045  
C284     C      0.312120000000     0.023360000000     0.485080000000    -0.0526238  
C285     C      0.100090000000     0.667660000000     0.012130000000    -0.0253417  
C286     C      0.071480000000     0.855830000000     0.079110000000    -0.023887   
C287     C      0.135360000000     0.894130000000     0.046170000000    -0.0248227  
C288     C      0.084220000000     0.893490000000     0.092700000000    -0.0244605  
C289     C      0.114880000000     0.770300000000     0.071090000000    -0.0492753  
C290     C      0.058870000000     0.753610000000     0.020600000000    -0.0501861  
C291     C      0.095170000000     0.798830000000     0.054170000000     0.0638968  
C292     C      0.121440000000     0.856540000000     0.033410000000    -0.0248937  
C293     C      0.078400000000     0.725090000000     0.037710000000     0.0688856  
C294     C      0.052800000000     0.667730000000     0.060100000000    -0.0142481  
C295     C      0.106700000000     0.733700000000     0.062970000000    -0.0559282  
C296     C      0.038370000000     0.629790000000     0.048500000000    -0.0186929  
C297     C      0.086410000000     0.629670000000     0.000130000000    -0.00629433 
C298     C      0.067160000000     0.790210000000     0.028620000000    -0.0526303  
C299     C      0.060600000000     0.373500000000     0.986720000000    -0.0210398  
C300     C      0.009450000000     0.183020000000     0.030130000000    -0.0249718  
C301     C      0.009660000000     0.149570000000     0.959820000000    -0.0240764  
C302     C      0.989990000000     0.145990000000     0.023680000000    -0.0242356  
C303     C      0.997210000000     0.271170000000     0.997920000000    -0.0517929  
C304     C      0.072510000000     0.285300000000     0.018650000000    -0.0522531  
C305     C      0.022550000000     0.241860000000     0.002810000000     0.0618664  
C306     C      0.028860000000     0.186440000000     0.967560000000    -0.0250576  
C307     C      0.047160000000     0.314600000000     0.013780000000     0.0668648  
C308     C      0.041010000000     0.369960000000     0.049260000000    -0.0153605  
C309     C      0.009300000000     0.307280000000     0.003320000000    -0.0575146  
C310     C      0.059660000000     0.407370000000     0.056650000000    -0.0165697  
C311     C      0.079080000000     0.410900000000     0.993600000000    -0.0107631  
C312     C      0.060440000000     0.249180000000     0.013230000000    -0.0544055  
C313     C      0.887850000000     0.963030000000     0.982770000000    -0.0208198  
C314     C      0.696160000000     0.016890000000     0.044290000000    -0.023378   
C315     C      0.648510000000     0.991210000000     0.986990000000    -0.0160744  
C316     C      0.654330000000     0.028390000000     0.040040000000    -0.0173713  
C317     C      0.780290000000     0.020270000000     0.997130000000    -0.0514573  
C318     C      0.802810000000     0.955810000000     0.031630000000    -0.0514423  
C319     C      0.752520000000     0.997450000000     0.012340000000     0.0633397  
C320     C      0.690360000000     0.979480000000     0.990100000000    -0.0235597  
C321     C      0.830480000000     0.978300000000     0.015950000000     0.0676687  
C322     C      0.892460000000     0.991350000000     0.041750000000    -0.0153295  
C323     C      0.819010000000     0.010990000000     0.999060000000    -0.0567359  
C324     C      0.932650000000     0.975310000000     0.047250000000    -0.0239165  
C325     C      0.927520000000     0.945870000000     0.986810000000    -0.023313   
C326     C      0.764200000000     0.965280000000     0.030080000000    -0.0534163  
C327     C      0.389600000000     0.052660000000     0.026490000000    -0.0243784  
C328     C      0.207490000000     0.024740000000     0.120510000000    -0.0247413  
C329     C      0.163740000000     0.091040000000     0.106060000000    -0.0230292  
C330     C      0.172970000000     0.034980000000     0.143440000000    -0.0240554  
C331     C      0.294780000000     0.062930000000     0.101890000000    -0.0503696  
C332     C      0.296240000000     0.020490000000     0.039970000000    -0.0512793  
C333     C      0.260410000000     0.050190000000     0.087370000000     0.0635513  
C334     C      0.198260000000     0.079600000000     0.083650000000    -0.0264639  
C335     C      0.330640000000     0.032870000000     0.054720000000     0.0649578  
C336     C      0.387530000000     0.996100000000     0.061900000000    -0.018092   
C337     C      0.329660000000     0.054340000000     0.085850000000    -0.0553608  
C338     C      0.422980000000     0.981510000000     0.042570000000    -0.0187639  
C339     C      0.425220000000     0.038730000000     0.006950000000    -0.00376435 
C340     C      0.261350000000     0.028960000000     0.056090000000    -0.0548465  
C341     C      0.024200000000     0.161360000000     0.702010000000    -0.0219664  
C342     C      0.079690000000     0.095490000000     0.879340000000    -0.0278885  
C343     C      0.116610000000     0.159840000000     0.909840000000    -0.0253504  
C344     C      0.106090000000     0.092000000000     0.911620000000    -0.0169243  
C345     C      0.089770000000     0.122900000000     0.792660000000    -0.0505106  
C346     C      0.011350000000     0.137580000000     0.791240000000    -0.0525949  
C347     C      0.070260000000     0.129100000000     0.824600000000     0.0619013  
C348     C      0.089960000000     0.162090000000     0.877640000000    -0.0251874  
C349     C      0.030910000000     0.131580000000     0.759280000000     0.0677173  
C350     C      0.007700000000     0.096340000000     0.709190000000    -0.0170642  
C351     C      0.070350000000     0.123970000000     0.760220000000    -0.0575202  
C352     C      0.981580000000     0.097740000000     0.676360000000    -0.0228872  
C353     C      0.997770000000     0.164660000000     0.669790000000    -0.0216238  
C354     C      0.030730000000     0.136260000000     0.823710000000    -0.05336    
C355     C      0.072350000000     0.031550000000     0.222860000000    -0.0214105  
C356     C      0.040140000000     0.915500000000     0.380240000000    -0.0255381  
C357     C      0.034540000000     0.969320000000     0.437170000000    -0.0280103  
C358     C      0.044570000000     0.904090000000     0.419210000000    -0.0237882  
C359     C      0.087710000000     0.971820000000     0.322020000000    -0.0496619  
C360     C      0.020080000000     0.977660000000     0.282840000000    -0.0499798  
C361     C      0.052660000000     0.964600000000     0.338590000000     0.0648998  
C362     C      0.030300000000     0.979670000000     0.397930000000    -0.0215902  
C363     C      0.055090000000     0.985090000000     0.266340000000     0.0677977  
C364     C      0.072170000000     0.966490000000     0.206510000000    -0.0146331  
C365     C      0.089060000000     0.981820000000     0.286140000000    -0.0553598  
C366     C      0.066020000000     0.976010000000     0.167110000000    -0.0308449  
C367     C      0.065820000000     0.042940000000     0.184150000000    -0.0230443  
C368     C      0.018750000000     0.967360000000     0.318600000000    -0.0529271  
Cu1      Cu     0.046310000000     0.020420000000     0.048360000000     0.87551    
Cu2      Cu     0.084750000000     0.021760000000     0.992640000000     0.820853   
Cu3      Cu     0.099540000000     0.031770000000     0.575310000000     0.847912   
Cu4      Cu     0.055040000000     0.034750000000     0.626850000000     0.831547   
Cu5      Cu     0.062850000000     0.480510000000     0.025810000000     1.20552    
Cu6      Cu     0.066420000000     0.558480000000     0.027630000000     1.20793    
Cu7      Cu     0.042210000000     0.559920000000     0.527520000000     1.19483    
Cu8      Cu     0.025470000000     0.483220000000     0.526970000000     1.19885    
Cu9      Cu     0.499150000000     0.008270000000     0.026170000000     1.22602    
Cu10     Cu     0.579770000000     0.004450000000     0.023380000000     1.2173     
Cu11     Cu     0.497150000000     0.023640000000     0.523600000000     1.2171     
Cu12     Cu     0.577720000000     0.028370000000     0.528090000000     1.19519    
Cu13     Cu     0.505770000000     0.515840000000     0.931790000000     1.23248    
Cu14     Cu     0.586650000000     0.517640000000     0.929250000000     1.20863    
Cu15     Cu     0.498270000000     0.542230000000     0.432960000000     1.19583    
Cu16     Cu     0.579300000000     0.536350000000     0.435970000000     1.20799    
H1       H      0.534920000000     0.488670000000     0.631960000000     0.0433291  
H2       H      0.599400000000     0.509950000000     0.755010000000     0.043315   
H3       H      0.478200000000     0.508500000000     0.758210000000     0.0486803  
H4       H      0.573790000000     0.600870000000     0.560770000000     0.0365831  
H5       H      0.581340000000     0.467130000000     0.801390000000     0.0536347  
H6       H      0.474350000000     0.558010000000     0.606090000000     0.0376457  
H7       H      0.595600000000     0.558970000000     0.606790000000     0.0378373  
H8       H      0.474010000000     0.560330000000     0.539610000000     0.0391373  
H9       H      0.480600000000     0.508970000000     0.825150000000     0.0565282  
H10      H      0.536830000000     0.466480000000     0.693580000000     0.0576515  
H11      H      0.602550000000     0.506860000000     0.821170000000     0.0569004  
H12      H      0.535630000000     0.600390000000     0.669680000000     0.0481343  
H13      H      0.574550000000     0.547220000000     0.776490000000     0.0475131  
H14      H      0.596990000000     0.562150000000     0.540740000000     0.0383214  
H15      H      0.499360000000     0.520020000000     0.585960000000     0.0395513  
H16      H      0.571470000000     0.520710000000     0.586180000000     0.0398226  
H17      H      0.537570000000     0.578220000000     0.731260000000     0.0460319  
H18      H      0.503300000000     0.546360000000     0.777860000000     0.03957    
H19      H      0.495490000000     0.599930000000     0.559840000000     0.0370786  
H20      H      0.442850000000     0.417380000000     0.793220000000     0.158313   
H21      H      0.548610000000     0.470440000000     0.141850000000     0.0440952  
H22      H      0.603600000000     0.512080000000     0.263800000000     0.0388364  
H23      H      0.482620000000     0.515520000000     0.258290000000     0.0496911  
H24      H      0.592320000000     0.567400000000     0.053160000000     0.0399564  
H25      H      0.581000000000     0.478380000000     0.314990000000     0.0518286  
H26      H      0.489290000000     0.534690000000     0.105140000000     0.041048   
H27      H      0.610370000000     0.532340000000     0.105020000000     0.0374391  
H28      H      0.488430000000     0.527040000000     0.039160000000     0.0498703  
H29      H      0.480030000000     0.526970000000     0.324580000000     0.0551424  
H30      H      0.545330000000     0.459810000000     0.206300000000     0.0577483  
H31      H      0.601210000000     0.520940000000     0.329560000000     0.03912    
H32      H      0.549540000000     0.587230000000     0.160000000000     0.0488923  
H33      H      0.578770000000     0.553180000000     0.277160000000     0.0384886  
H34      H      0.610380000000     0.523850000000     0.038570000000     0.0414023  
H35      H      0.513750000000     0.493990000000     0.090090000000     0.0405336  
H36      H      0.584230000000     0.492530000000     0.090250000000     0.039187   
H37      H      0.546420000000     0.576630000000     0.224380000000     0.0441735  
H38      H      0.508330000000     0.554990000000     0.273750000000     0.0379514  
H39      H      0.509200000000     0.569420000000     0.053740000000     0.0488188  
H40      H      0.510730000000     0.413030000000     0.291160000000     0.15824    
H41      H      0.550190000000     0.721090000000     0.510850000000     0.0435072  
H42      H      0.608250000000     0.854450000000     0.526900000000     0.0387239  
H43      H      0.487210000000     0.846820000000     0.523200000000     0.047162   
H44      H      0.593010000000     0.675610000000     0.390430000000     0.0378186  
H45      H      0.581960000000     0.889650000000     0.576270000000     0.0541933  
H46      H      0.493010000000     0.717490000000     0.434110000000     0.037796   
H47      H      0.613790000000     0.710310000000     0.442370000000     0.0374281  
H48      H      0.489320000000     0.652430000000     0.414260000000     0.0382695  
H49      H      0.482040000000     0.913860000000     0.537580000000     0.0517521  
H50      H      0.548040000000     0.776770000000     0.547600000000     0.057077   
H51      H      0.604440000000     0.919900000000     0.545220000000     0.0398913  
H52      H      0.556040000000     0.787720000000     0.416290000000     0.0468901  
H53      H      0.583200000000     0.882410000000     0.494870000000     0.0377869  
H54      H      0.611990000000     0.644660000000     0.423160000000     0.0433814  
H55      H      0.512690000000     0.686300000000     0.466610000000     0.0407658  
H56      H      0.585470000000     0.682030000000     0.471660000000     0.040458   
H57      H      0.553420000000     0.843310000000     0.452920000000     0.0426503  
H58      H      0.510500000000     0.877060000000     0.492350000000     0.0364911  
H59      H      0.517540000000     0.680510000000     0.385140000000     0.0373926  
H60      H      0.517890000000     0.839130000000     0.624960000000     0.158305   
H61      H      0.530520000000     0.315030000000     0.421080000000     0.0466972  
H62      H      0.589150000000     0.205470000000     0.488150000000     0.0392811  
H63      H      0.468580000000     0.198350000000     0.479730000000     0.049114   
H64      H      0.566600000000     0.420360000000     0.503620000000     0.03657    
H65      H      0.577280000000     0.145790000000     0.463040000000     0.0535578  
H66      H      0.466110000000     0.365270000000     0.467780000000     0.0401129  
H67      H      0.586300000000     0.361450000000     0.481000000000     0.0372905  
H68      H      0.470760000000     0.431270000000     0.448220000000     0.0473828  
H69      H      0.471690000000     0.132530000000     0.500920000000     0.0522931  
H70      H      0.532130000000     0.247660000000     0.422470000000     0.0589379  
H71      H      0.592250000000     0.139890000000     0.508210000000     0.0416486  
H72      H      0.519130000000     0.317270000000     0.535190000000     0.046942   
H73      H      0.560890000000     0.195770000000     0.527110000000     0.0376294  
H74      H      0.591440000000     0.427160000000     0.462450000000     0.0406801  
H75      H      0.496780000000     0.372530000000     0.429910000000     0.0473789  
H76      H      0.566480000000     0.370570000000     0.437630000000     0.0425611  
H77      H      0.520760000000     0.249930000000     0.536590000000     0.0431809  
H78      H      0.491290000000     0.191380000000     0.521940000000     0.0366809  
H79      H      0.483110000000     0.423450000000     0.493890000000     0.0366265  
H80      H      0.513330000000     0.151220000000     0.389860000000     0.157423   
H81      H      0.533890000000     0.700290000000     0.004920000000     0.0474602  
H82      H      0.593630000000     0.828760000000     0.015700000000     0.0407487  
H83      H      0.472280000000     0.830740000000     0.018150000000     0.058114   
H84      H      0.581150000000     0.656400000000     0.885380000000     0.0497508  
H85      H      0.573150000000     0.866220000000     0.065790000000     0.0537238  
H86      H      0.477480000000     0.689420000000     0.929170000000     0.0493374  
H87      H      0.598520000000     0.694910000000     0.935750000000     0.0423945  
H88      H      0.480900000000     0.623790000000     0.910890000000     0.0548868  
H89      H      0.474110000000     0.898490000000     0.031050000000     0.0697644  
H90      H      0.531950000000     0.756530000000     0.040780000000     0.0603625  
H91      H      0.596640000000     0.894190000000     0.033340000000     0.0451138  
H92      H      0.534760000000     0.765270000000     0.909100000000     0.0525312  
H93      H      0.569170000000     0.858320000000     0.984590000000     0.0481875  
H94      H      0.603700000000     0.628880000000     0.919060000000     0.0551127  
H95      H      0.500830000000     0.661370000000     0.962250000000     0.0558626  
H96      H      0.574060000000     0.664890000000     0.966400000000     0.0432153  
H97      H      0.532320000000     0.821440000000     0.944880000000     0.055836   
H98      H      0.496180000000     0.858490000000     0.985560000000     0.0602014  
H99      H      0.505750000000     0.653760000000     0.880970000000     0.0412899  
H100     H      0.430830000000     0.884680000000     0.090490000000     0.158683   
H101     H      0.550890000000     0.314800000000     0.020670000000     0.0438267  
H102     H      0.489360000000     0.187790000000     0.006190000000     0.0399997  
H103     H      0.610460000000     0.183490000000     0.004460000000     0.0381108  
H104     H      0.509870000000     0.381040000000     0.907750000000     0.0521854  
H105     H      0.506950000000     0.142400000000     0.049880000000     0.0645131  
H106     H      0.611500000000     0.339400000000     0.954790000000     0.0372217  
H107     H      0.490460000000     0.336210000000     0.951410000000     0.0383803  
H108     H      0.610140000000     0.407870000000     0.948500000000     0.0398168  
H109     H      0.607310000000     0.114360000000     0.008610000000     0.0515391  
H110     H      0.550620000000     0.252190000000     0.044770000000     0.0575305  
H111     H      0.486030000000     0.119660000000     0.012430000000     0.0435705  
H112     H      0.551970000000     0.271150000000     0.914120000000     0.0481718  
H113     H      0.513340000000     0.163340000000     0.970950000000     0.0372666  
H114     H      0.488170000000     0.404440000000     0.944550000000     0.0433629  
H115     H      0.584440000000     0.362380000000     0.989010000000     0.0391139  
H116     H      0.513930000000     0.360600000000     0.986980000000     0.0393555  
H117     H      0.551330000000     0.208590000000     0.938180000000     0.0425548  
H118     H      0.583640000000     0.160950000000     0.970200000000     0.0355745  
H119     H      0.592740000000     0.383570000000     0.910290000000     0.0419495  
H120     H      0.642720000000     0.180060000000     0.064770000000     0.151274   
H121     H      0.531600000000     0.976630000000     0.726270000000     0.048873   
H122     H      0.590160000000     0.007470000000     0.848220000000     0.0386875  
H123     H      0.469520000000     0.996520000000     0.852050000000     0.0429698  
H124     H      0.562260000000     0.089430000000     0.652320000000     0.0362311  
H125     H      0.576260000000     0.964370000000     0.895520000000     0.0524328  
H126     H      0.465440000000     0.038540000000     0.695920000000     0.0403148  
H127     H      0.585840000000     0.051280000000     0.700480000000     0.0377884  
H128     H      0.467600000000     0.038660000000     0.629430000000     0.0431423  
H129     H      0.472150000000     0.997790000000     0.919060000000     0.0620994  
H130     H      0.533630000000     0.956960000000     0.788660000000     0.0540885  
H131     H      0.593650000000     0.006340000000     0.914450000000     0.0384653  
H132     H      0.519370000000     0.089120000000     0.759890000000     0.046793   
H133     H      0.562150000000     0.043080000000     0.868980000000     0.0378198  
H134     H      0.589560000000     0.052130000000     0.634300000000     0.039241   
H135     H      0.495230000000     0.002690000000     0.677860000000     0.0491762  
H136     H      0.566510000000     0.010300000000     0.680440000000     0.0444559  
H137     H      0.521450000000     0.069430000000     0.822320000000     0.0423663  
H138     H      0.491470000000     0.036540000000     0.870970000000     0.0376096  
H139     H      0.483600000000     0.080890000000     0.649030000000     0.0366345  
H140     H      0.493820000000     0.924880000000     0.843180000000     0.153646   
H141     H      0.548160000000     0.059970000000     0.319180000000     0.0477125  
H142     H      0.606940000000     0.017300000000     0.196890000000     0.0413505  
H143     H      0.485950000000     0.020330000000     0.202130000000     0.0510509  
H144     H      0.589360000000     0.963620000000     0.407800000000     0.0353061  
H145     H      0.587410000000     0.053700000000     0.146700000000     0.0565132  
H146     H      0.488320000000     0.991560000000     0.352380000000     0.0415253  
H147     H      0.609150000000     0.999650000000     0.356870000000     0.0388526  
H148     H      0.484120000000     0.998250000000     0.418160000000     0.048825   
H149     H      0.483000000000     0.011360000000     0.135530000000     0.0565764  
H150     H      0.547290000000     0.071970000000     0.254960000000     0.0622645  
H151     H      0.604080000000     0.010330000000     0.130700000000     0.0458897  
H152     H      0.550190000000     0.943560000000     0.298750000000     0.0479119  
H153     H      0.579550000000     0.978220000000     0.182180000000     0.0434576  
H154     H      0.606360000000     0.007370000000     0.423030000000     0.0418232  
H155     H      0.509640000000     0.033560000000     0.368310000000     0.0523684  
H156     H      0.580770000000     0.038390000000     0.370820000000     0.0451207  
H157     H      0.548740000000     0.955550000000     0.234560000000     0.0475842  
H158     H      0.509580000000     0.980230000000     0.185360000000     0.0448034  
H159     H      0.509340000000     0.957780000000     0.404360000000     0.0355078  
H160     H      0.545320000000     0.108990000000     0.156420000000     0.169159   
H161     H      0.763710000000     0.526690000000     0.438960000000     0.0442026  
H162     H      0.852010000000     0.459890000000     0.528730000000     0.0455287  
H163     H      0.857270000000     0.416030000000     0.424030000000     0.0480502  
H164     H      0.629920000000     0.502090000000     0.486260000000     0.0398873  
H165     H      0.919230000000     0.455050000000     0.513710000000     0.0722463  
H166     H      0.696090000000     0.470490000000     0.399650000000     0.0352625  
H167     H      0.696120000000     0.512610000000     0.504600000000     0.0346946  
H168     H      0.638650000000     0.508300000000     0.385810000000     0.0377382  
H169     H      0.913260000000     0.375350000000     0.444570000000     0.0485684  
H170     H      0.829720000000     0.505980000000     0.448620000000     0.0575751  
H171     H      0.908810000000     0.420090000000     0.546020000000     0.0460711  
H172     H      0.721850000000     0.423030000000     0.478090000000     0.0464466  
H173     H      0.844660000000     0.411240000000     0.522820000000     0.0394505  
H174     H      0.639140000000     0.550660000000     0.489790000000     0.0373052  
H175     H      0.704010000000     0.519050000000     0.405880000000     0.0377172  
H176     H      0.704160000000     0.544040000000     0.468230000000     0.0375073  
H177     H      0.787720000000     0.402280000000     0.487630000000     0.0442938  
H178     H      0.847720000000     0.385360000000     0.460340000000     0.03669    
H179     H      0.630130000000     0.475320000000     0.420480000000     0.04173    
H180     H      0.944070000000     0.494490000000     0.437910000000     0.155847   
H181     H      0.315080000000     0.550430000000     0.412240000000     0.0466574  
H182     H      0.200030000000     0.564160000000     0.502760000000     0.0376988  
H183     H      0.223980000000     0.657140000000     0.438100000000     0.0489802  
H184     H      0.435660000000     0.538360000000     0.485720000000     0.040641   
H185     H      0.139120000000     0.583720000000     0.478200000000     0.0473109  
H186     H      0.383050000000     0.619780000000     0.427130000000     0.0358017  
H187     H      0.368950000000     0.518910000000     0.481590000000     0.0347701  
H188     H      0.445680000000     0.597790000000     0.403770000000     0.0372843  
H189     H      0.163070000000     0.687380000000     0.462810000000     0.0484685  
H190     H      0.247160000000     0.566740000000     0.417690000000     0.0583827  
H191     H      0.139470000000     0.596130000000     0.524530000000     0.0445189  
H192     H      0.339480000000     0.610020000000     0.508590000000     0.0466017  
H193     H      0.207510000000     0.607840000000     0.524260000000     0.0372454  
H194     H      0.432300000000     0.497890000000     0.458510000000     0.0391995  
H195     H      0.379110000000     0.578230000000     0.401180000000     0.0413184  
H196     H      0.370970000000     0.518120000000     0.433600000000     0.0412922  
H197     H      0.271820000000     0.626590000000     0.513900000000     0.0435881  
H198     H      0.221830000000     0.663190000000     0.485470000000     0.0365864  
H199     H      0.444800000000     0.600670000000     0.451700000000     0.0383178  
H200     H      0.143480000000     0.584790000000     0.414400000000     0.147695   
H201     H      0.846720000000     0.519490000000     0.884170000000     0.0430147  
H202     H      0.715170000000     0.463090000000     0.904720000000     0.0373141  
H203     H      0.717480000000     0.575580000000     0.934180000000     0.0416428  
H204     H      0.937670000000     0.466030000000     0.978120000000     0.0455887  
H205     H      0.658620000000     0.492860000000     0.878880000000     0.0528862  
H206     H      0.886930000000     0.567150000000     0.951210000000     0.0416948  
H207     H      0.880840000000     0.450880000000     0.943560000000     0.035654   
H208     H      0.959090000000     0.563020000000     0.941730000000     0.0528087  
H209     H      0.646050000000     0.573780000000     0.942350000000     0.041896   
H210     H      0.778070000000     0.524450000000     0.871800000000     0.0503958  
H211     H      0.644260000000     0.462160000000     0.913410000000     0.0344278  
H212     H      0.822310000000     0.502800000000     0.995370000000     0.0482853  
H213     H      0.700470000000     0.474820000000     0.949310000000     0.0363204  
H214     H      0.953150000000     0.449030000000     0.935360000000     0.0347283  
H215     H      0.901520000000     0.545950000000     0.910000000000     0.0370171  
H216     H      0.897900000000     0.476220000000     0.905470000000     0.0367786  
H217     H      0.753600000000     0.506500000000     0.982800000000     0.0429808  
H218     H      0.700890000000     0.543040000000     0.966640000000     0.0364039  
H219     H      0.942050000000     0.542700000000     0.982610000000     0.0553293  
H220     H      0.715420000000     0.566110000000     0.855360000000     0.154277   
H221     H      0.246860000000     0.509780000000     0.980280000000     0.0481384  
H222     H      0.382050000000     0.462750000000     0.972980000000     0.0388309  
H223     H      0.371110000000     0.561380000000     0.913630000000     0.0475646  
H224     H      0.164570000000     0.422000000000     0.905350000000     0.0389419  
H225     H      0.436040000000     0.502840000000     0.988290000000     0.0502449  
H226     H      0.199350000000     0.531830000000     0.905960000000     0.0375644  
H227     H      0.223270000000     0.423140000000     0.940520000000     0.0382058  
H228     H      0.128760000000     0.520780000000     0.919880000000     0.0390936  
H229     H      0.442490000000     0.561810000000     0.904600000000     0.0431729  
H230     H      0.314500000000     0.524970000000     0.989030000000     0.0597702  
H231     H      0.452850000000     0.464180000000     0.963670000000     0.0329909  
H232     H      0.273040000000     0.465480000000     0.876800000000     0.0472461  
H233     H      0.395870000000     0.461700000000     0.926730000000     0.0405667  
H234     H      0.152500000000     0.413190000000     0.951140000000     0.037671   
H235     H      0.188930000000     0.520380000000     0.951600000000     0.0389442  
H236     H      0.202780000000     0.454730000000     0.972250000000     0.0464399  
H237     H      0.340880000000     0.479190000000     0.886190000000     0.0464668  
H238     H      0.390090000000     0.521850000000     0.891110000000     0.0392706  
H239     H      0.147800000000     0.493170000000     0.884180000000     0.0399158  
H240     H      0.400140000000     0.583210000000     0.015260000000     0.157842   
H241     H      0.966530000000     0.533040000000     0.820640000000     0.0426451  
H242     H      0.013580000000     0.585420000000     0.698760000000     0.0385182  
H243     H      0.997280000000     0.470040000000     0.700600000000     0.0418915  
H244     H      0.077730000000     0.565670000000     0.902090000000     0.0365329  
H245     H      0.974650000000     0.570400000000     0.647600000000     0.0545062  
H246     H      0.026880000000     0.468060000000     0.853160000000     0.0357678  
H247     H      0.037050000000     0.583770000000     0.854510000000     0.0373753  
H248     H      0.025380000000     0.467860000000     0.920560000000     0.0422965  
H249     H      0.008760000000     0.467950000000     0.634400000000     0.0491788  
H250     H      0.952430000000     0.534200000000     0.756560000000     0.0489537  
H251     H      0.021130000000     0.584330000000     0.632930000000     0.0397948  
H252     H      0.086370000000     0.519890000000     0.797530000000     0.0457274  
H253     H      0.051800000000     0.555940000000     0.683900000000     0.0377071  
H254     H      0.034740000000     0.582380000000     0.922010000000     0.0497323  
H255     H      0.990010000000     0.496100000000     0.872640000000     0.0418743  
H256     H      0.995750000000     0.561600000000     0.873420000000     0.0398614  
H257     H      0.072400000000     0.520760000000     0.733720000000     0.0421446  
H258     H      0.042150000000     0.488140000000     0.685610000000     0.0367842  
H259     H      0.070220000000     0.478550000000     0.900560000000     0.0403395  
H260     H      0.922320000000     0.505630000000     0.695610000000     0.152171   
H261     H      0.124880000000     0.509010000000     0.321120000000     0.0475615  
H262     H      0.080170000000     0.459020000000     0.199060000000     0.0459183  
H263     H      0.097710000000     0.574230000000     0.200160000000     0.0506962  
H264     H      0.009310000000     0.484450000000     0.400550000000     0.0524577  
H265     H      0.120530000000     0.472490000000     0.148530000000     0.068257   
H266     H      0.069790000000     0.576280000000     0.354210000000     0.048677   
H267     H      0.047500000000     0.462060000000     0.352460000000     0.0441373  
H268     H      0.071720000000     0.574520000000     0.421280000000     0.0511699  
H269     H      0.089140000000     0.575770000000     0.133640000000     0.0547993  
H270     H      0.140340000000     0.507640000000     0.257370000000     0.0604838  
H271     H      0.073910000000     0.459810000000     0.133050000000     0.0550212  
H272     H      0.006410000000     0.528150000000     0.295840000000     0.051396   
H273     H      0.042770000000     0.488830000000     0.183080000000     0.0404292  
H274     H      0.049410000000     0.460870000000     0.419570000000     0.0513445  
H275     H      0.103930000000     0.544490000000     0.372610000000     0.0436543  
H276     H      0.091200000000     0.479210000000     0.371630000000     0.0405417  
H277     H      0.021720000000     0.526520000000     0.232270000000     0.0454308  
H278     H      0.053250000000     0.556320000000     0.183900000000     0.0390761  
H279     H      0.025570000000     0.567350000000     0.401970000000     0.0444563  
H280     H      0.198590000000     0.527850000000     0.173280000000     0.161576   
H281     H      0.116870000000     0.716920000000     0.512560000000     0.0484618  
H282     H      0.069450000000     0.851680000000     0.489550000000     0.0381698  
H283     H      0.114150000000     0.831550000000     0.592910000000     0.0488383  
H284     H      0.001490000000     0.632220000000     0.514050000000     0.0425613  
H285     H      0.115320000000     0.900190000000     0.501360000000     0.0579085  
H286     H      0.074690000000     0.677140000000     0.587160000000     0.0360821  
H287     H      0.025770000000     0.687680000000     0.484560000000     0.0419368  
H288     H      0.079050000000     0.609140000000     0.578390000000     0.0327758  
H289     H      0.109520000000     0.900970000000     0.605150000000     0.0524448  
H290     H      0.134910000000     0.782020000000     0.514430000000     0.0572055  
H291     H      0.068430000000     0.920260000000     0.503550000000     0.0516989  
H292     H      0.007610000000     0.743420000000     0.558860000000     0.0480581  
H293     H      0.040840000000     0.864090000000     0.527620000000     0.0391548  
H294     H      0.030550000000     0.619570000000     0.476460000000     0.0439606  
H295     H      0.104260000000     0.664500000000     0.549810000000     0.0433215  
H296     H      0.074260000000     0.671160000000     0.486870000000     0.0557654  
H297     H      0.025490000000     0.808510000000     0.560410000000     0.0442117  
H298     H      0.067610000000     0.851890000000     0.589030000000     0.0376926  
H299     H      0.030670000000     0.625980000000     0.575480000000     0.0400459  
H300     H      0.201750000000     0.872760000000     0.527210000000     0.153627   
H301     H      0.954670000000     0.327830000000     0.507890000000     0.0499676  
H302     H      0.999240000000     0.195220000000     0.486680000000     0.0423874  
H303     H      0.946230000000     0.209810000000     0.587490000000     0.0487175  
H304     H      0.069100000000     0.410820000000     0.523190000000     0.0407039  
H305     H      0.949850000000     0.148550000000     0.490840000000     0.0595949  
H306     H      0.988350000000     0.367500000000     0.587360000000     0.0405514  
H307     H      0.050090000000     0.354390000000     0.491360000000     0.0390597  
H308     H      0.981590000000     0.434700000000     0.574310000000     0.0473472  
H309     H      0.945200000000     0.139520000000     0.594360000000     0.0658217  
H310     H      0.934700000000     0.263420000000     0.507000000000     0.0584789  
H311     H      0.995290000000     0.125800000000     0.495370000000     0.0527192  
H312     H      0.055740000000     0.298140000000     0.566920000000     0.047808   
H313     H      0.023230000000     0.178520000000     0.525990000000     0.0426861  
H314     H      0.047180000000     0.421800000000     0.481290000000     0.0468409  
H315     H      0.962680000000     0.377600000000     0.547140000000     0.0464078  
H316     H      0.001620000000     0.370750000000     0.487170000000     0.0538747  
H317     H      0.035970000000     0.233410000000     0.565350000000     0.0449623  
H318     H      0.991710000000     0.187040000000     0.585220000000     0.0379536  
H319     H      0.030650000000     0.420310000000     0.579010000000     0.0386345  
H320     H      0.862270000000     0.188240000000     0.516980000000     0.157469   
H321     H      0.753930000000     0.063790000000     0.513740000000     0.0457431  
H322     H      0.871590000000     0.063950000000     0.601430000000     0.0637489  
H323     H      0.875770000000     0.985450000000     0.517780000000     0.0477837  
H324     H      0.637760000000     0.028020000000     0.586330000000     0.0381241  
H325     H      0.934190000000     0.069520000000     0.573770000000     0.0741585  
H326     H      0.708080000000     0.977570000000     0.513640000000     0.0354955  
H327     H      0.697890000000     0.062850000000     0.589760000000     0.0376447  
H328     H      0.640500000000     0.988310000000     0.494930000000     0.0353639  
H329     H      0.944590000000     0.970020000000     0.537050000000     0.049609   
H330     H      0.823970000000     0.066360000000     0.516270000000     0.0693853  
H331     H      0.940690000000     0.048630000000     0.616690000000     0.053244   
H332     H      0.753820000000     0.980510000000     0.595150000000     0.0474327  
H333     H      0.879940000000     0.016520000000     0.612780000000     0.0453553  
H334     H      0.630470000000     0.073900000000     0.569590000000     0.0338173  
H335     H      0.700500000000     0.023530000000     0.497050000000     0.0394987  
H336     H      0.694540000000     0.075570000000     0.543460000000     0.0401442  
H337     H      0.823830000000     0.982860000000     0.597490000000     0.0467158  
H338     H      0.881900000000     0.969750000000     0.562700000000     0.0373985  
H339     H      0.644520000000     0.976720000000     0.541370000000     0.0398443  
H340     H      0.926280000000     0.076780000000     0.480750000000     0.157787   
H341     H      0.331610000000     0.038930000000     0.468620000000     0.0476416  
H342     H      0.218890000000     0.949480000000     0.453880000000     0.0403588  
H343     H      0.190830000000     0.042890000000     0.516510000000     0.0485645  
H344     H      0.432640000000     0.967130000000     0.535830000000     0.0442946  
H345     H      0.159890000000     0.974510000000     0.429660000000     0.0556472  
H346     H      0.362750000000     0.054070000000     0.555630000000     0.0386666  
H347     H      0.378070000000     0.956620000000     0.495690000000     0.0381094  
H348     H      0.432850000000     0.068010000000     0.548840000000     0.0342455  
H349     H      0.120600000000     0.022030000000     0.514870000000     0.023265   
H350     H      0.264120000000     0.035350000000     0.451450000000     0.0591087  
H351     H      0.148290000000     0.932290000000     0.451970000000     0.0378554  
H352     H      0.308960000000     0.970080000000     0.559470000000     0.0533018  
H353     H      0.197470000000     0.942220000000     0.496950000000     0.0503618  
H354     H      0.447700000000     0.970790000000     0.490110000000     0.036512   
H355     H      0.377450000000     0.060030000000     0.510000000000     0.044073   
H356     H      0.387220000000     0.999210000000     0.472660000000     0.0421021  
H357     H      0.241470000000     0.966370000000     0.542090000000     0.061815   
H358     H      0.180990000000     0.998140000000     0.534260000000     0.0501241  
H359     H      0.424200000000     0.024840000000     0.570810000000     0.0397406  
H360     H      0.167860000000     0.068110000000     0.413780000000     0.158329   
H361     H      0.051660000000     0.811730000000     0.015010000000     0.04679    
H362     H      0.110240000000     0.683010000000     0.988370000000     0.0393505  
H363     H      0.028840000000     0.683470000000     0.072210000000     0.0489695  
H364     H      0.160240000000     0.890630000000     0.064210000000     0.0432067  
H365     H      0.065590000000     0.632440000000     0.978030000000     0.0492444  
H366     H      0.059710000000     0.839940000000     0.101870000000     0.0464952  
H367     H      0.146300000000     0.841140000000     0.022580000000     0.0391341  
H368     H      0.058940000000     0.910020000000     0.100420000000     0.0664117  
H369     H      0.030790000000     0.614220000000     0.072880000000     0.0451716  
H370     H      0.037070000000     0.747400000000     0.001080000000     0.0593357  
H371     H      0.111230000000     0.613880000000     0.990020000000     0.034508   
H372     H      0.136600000000     0.776500000000     0.090690000000     0.0508702  
H373     H      0.124540000000     0.664340000000     0.030800000000     0.0437085  
H374     H      0.144220000000     0.911140000000     0.023120000000     0.0433888  
H375     H      0.048340000000     0.859640000000     0.059130000000     0.0510324  
H376     H      0.100260000000     0.860420000000     0.011640000000     0.0412013  
H377     H      0.122260000000     0.712190000000     0.076510000000     0.0492362  
H378     H      0.075120000000     0.664020000000     0.080900000000     0.0409217  
H379     H      0.102990000000     0.890110000000     0.116300000000     0.0449944  
H380     H      0.965410000000     0.676380000000     0.993920000000     0.156847   
H381     H      0.080580000000     0.227030000000     0.017200000000     0.0434162  
H382     H      0.077180000000     0.359220000000     0.965610000000     0.035617   
H383     H      0.042450000000     0.352730000000     0.073670000000     0.0461547  
H384     H      0.980800000000     0.154240000000     0.948380000000     0.0401096  
H385     H      0.110020000000     0.407690000000     0.999140000000     0.0528102  
H386     H      0.993760000000     0.197640000000     0.051600000000     0.037916   
H387     H      0.027540000000     0.203620000000     0.943140000000     0.0337336  
H388     H      0.994210000000     0.127730000000     0.046980000000     0.0461659  
H389     H      0.041790000000     0.422020000000     0.076480000000     0.0415452  
H390     H      0.101720000000     0.290540000000     0.026670000000     0.0572431  
H391     H      0.076040000000     0.427960000000     0.969390000000     0.0356125  
H392     H      0.968000000000     0.265940000000     0.989910000000     0.0461423  
H393     H      0.030900000000     0.377760000000     0.976930000000     0.0351622  
H394     H      0.026900000000     0.133660000000     0.940500000000     0.0427278  
H395     H      0.039300000000     0.178190000000     0.039250000000     0.039624   
H396     H      0.059420000000     0.181620000000     0.974290000000     0.0414554  
H397     H      0.989170000000     0.329440000000     0.999340000000     0.0427112  
H398     H      0.010310000000     0.374350000000     0.042780000000     0.0366283  
H399     H      0.958840000000     0.150160000000     0.019590000000     0.0425328  
H400     H      0.154150000000     0.364270000000     0.068940000000     0.158492   
H401     H      0.743490000000     0.947380000000     0.042540000000     0.0448967  
H402     H      0.870130000000     0.944720000000     0.965790000000     0.0390777  
H403     H      0.878010000000     0.994190000000     0.067980000000     0.0479131  
H404     H      0.645860000000     0.015830000000     0.969670000000     0.0357571  
H405     H      0.924780000000     0.916750000000     0.995140000000     0.0584804  
H406     H      0.712240000000     0.040120000000     0.056310000000     0.0411616  
H407     H      0.702160000000     0.975780000000     0.962880000000     0.0362203  
H408     H      0.641940000000     0.033500000000     0.066730000000     0.0463393  
H409     H      0.950930000000     0.996320000000     0.060170000000     0.0607095  
H410     H      0.811280000000     0.930830000000     0.045090000000     0.0588985  
H411     H      0.942920000000     0.946750000000     0.961020000000     0.0406586  
H412     H      0.771830000000     0.045270000000     0.983710000000     0.0476047  
H413     H      0.890710000000     0.990020000000     0.969150000000     0.03754    
H414     H      0.632080000000     0.968410000000     0.974770000000     0.0358416  
H415     H      0.697640000000     0.993080000000     0.062790000000     0.0411312  
H416     H      0.691430000000     0.952570000000     0.004060000000     0.0393743  
H417     H      0.839910000000     0.029160000000     0.987250000000     0.0439346  
H418     H      0.895110000000     0.019310000000     0.030050000000     0.0392503  
H419     H      0.652370000000     0.054210000000     0.024370000000     0.0454917  
H420     H      0.899030000000     0.885830000000     0.079670000000     0.160161   
H421     H      0.235240000000     0.018530000000     0.044470000000     0.0466495  
H422     H      0.372770000000     0.070070000000     0.007910000000     0.039548   
H423     H      0.369070000000     0.972590000000     0.069810000000     0.0417818  
H424     H      0.172690000000     0.111500000000     0.126320000000     0.0426244  
H425     H      0.417270000000     0.025720000000     0.981310000000     0.0523524  
H426     H      0.228430000000     0.009860000000     0.137470000000     0.037622   
H427     H      0.212500000000     0.104790000000     0.073480000000     0.0384621  
H428     H      0.157030000000     0.009860000000     0.151070000000     0.0442671  
H429     H      0.440300000000     0.965910000000     0.062130000000     0.0452867  
H430     H      0.296550000000     0.003710000000     0.016210000000     0.0510074  
H431     H      0.443980000000     0.062380000000     0.000830000000     0.0319334  
H432     H      0.294510000000     0.079100000000     0.126040000000     0.051047   
H433     H      0.398800000000     0.069940000000     0.049340000000     0.044428   
H434     H      0.141530000000     0.103570000000     0.088870000000     0.0407313  
H435     H      0.198120000000     0.005930000000     0.098880000000     0.0382081  
H436     H      0.188170000000     0.063240000000     0.060490000000     0.0432848  
H437     H      0.355830000000     0.063920000000     0.098040000000     0.0513968  
H438     H      0.396850000000     0.010330000000     0.086630000000     0.0432352  
H439     H      0.182730000000     0.049080000000     0.168020000000     0.0420604  
H440     H      0.349710000000     0.955990000000     0.995880000000     0.154348   
H441     H      0.014900000000     0.140730000000     0.848040000000     0.0421357  
H442     H      0.025050000000     0.188340000000     0.715840000000     0.0382509  
H443     H      0.996540000000     0.075590000000     0.728260000000     0.045454   
H444     H      0.146820000000     0.159160000000     0.900750000000     0.0418715  
H445     H      0.969870000000     0.176460000000     0.678030000000     0.057469   
H446     H      0.081830000000     0.069820000000     0.863440000000     0.0386473  
H447     H      0.099470000000     0.185190000000     0.860450000000     0.0353206  
H448     H      0.094930000000     0.070880000000     0.930120000000     0.0343494  
H449     H      0.985740000000     0.072240000000     0.660750000000     0.0389357  
H450     H      0.980960000000     0.143150000000     0.790920000000     0.0573895  
H451     H      0.010780000000     0.183050000000     0.649630000000     0.0366982  
H452     H      0.120100000000     0.117070000000     0.792980000000     0.0478299  
H453     H      0.053560000000     0.154730000000     0.692610000000     0.0409513  
H454     H      0.112530000000     0.184160000000     0.927190000000     0.0346508  
H455     H      0.049630000000     0.098460000000     0.888550000000     0.0408413  
H456     H      0.060440000000     0.168030000000     0.887010000000     0.03432    
H457     H      0.086060000000     0.118810000000     0.735960000000     0.0479791  
H458     H      0.036640000000     0.087200000000     0.700690000000     0.0381113  
H459     H      0.135120000000     0.083680000000     0.902780000000     0.038365   
H460     H      0.898120000000     0.129570000000     0.726960000000     0.158828   
H461     H      0.991320000000     0.961510000000     0.330590000000     0.0473425  
H462     H      0.058890000000     0.052400000000     0.240470000000     0.0405264  
H463     H      0.059000000000     0.939340000000     0.212340000000     0.0469791  
H464     H      0.064220000000     0.974720000000     0.446030000000     0.0636605  
H465     H      0.035120000000     0.049230000000     0.179820000000     0.0577823  
H466     H      0.058070000000     0.897030000000     0.363620000000     0.0388122  
H467     H      0.041010000000     0.008140000000     0.394190000000     0.0540271  
H468     H      0.031420000000     0.876750000000     0.423620000000     0.0381936  
H469     H      0.084040000000     0.957670000000     0.150540000000     0.0508654  
H470     H      0.993770000000     0.979710000000     0.267820000000     0.060497   
H471     H      0.082690000000     0.067940000000     0.178000000000     0.0437002  
H472     H      0.114050000000     0.969530000000     0.336970000000     0.0504153  
H473     H      0.103610000000     0.031120000000     0.228320000000     0.0369923  
H474     H      0.014750000000     0.985870000000     0.453700000000     0.0677352  
H475     H      0.009750000000     0.911970000000     0.372130000000     0.042087   
H476     H      0.999450000000     0.979060000000     0.390780000000     0.0474906  
H477     H      0.116520000000     0.986950000000     0.273880000000     0.0443969  
H478     H      0.103400000000     0.964110000000     0.211720000000     0.0352996  
H479     H      0.075380000000     0.902550000000     0.426230000000     0.0402793  
H480     H      0.961840000000     0.986790000000     0.172750000000     0.169274   
N1       N      0.541460000000     0.501300000000     0.827730000000    -0.172209   
N2       N      0.538750000000     0.506340000000     0.752750000000    -0.106647   
N3       N      0.534930000000     0.560590000000     0.610510000000    -0.11254    
N4       N      0.535450000000     0.564370000000     0.535590000000    -0.182308   
N5       N      0.539800000000     0.516770000000     0.332740000000    -0.174656   
N6       N      0.543210000000     0.509800000000     0.257800000000    -0.105003   
N7       N      0.549930000000     0.537370000000     0.108460000000    -0.11204    
N8       N      0.549650000000     0.531750000000     0.033500000000    -0.178858   
N9       N      0.542580000000     0.920740000000     0.545830000000    -0.17459    
N10      N      0.548060000000     0.846160000000     0.525620000000    -0.105253   
N11      N      0.553730000000     0.718420000000     0.438030000000    -0.112886   
N12      N      0.550560000000     0.644370000000     0.416600000000    -0.181361   
N13      N      0.532800000000     0.129150000000     0.497570000000    -0.174752   
N14      N      0.529130000000     0.204260000000     0.479190000000    -0.104995   
N15      N      0.525550000000     0.360740000000     0.478820000000    -0.112228   
N16      N      0.530470000000     0.435900000000     0.461180000000    -0.179872   
N17      N      0.535150000000     0.900130000000     0.036720000000    -0.173283   
N18      N      0.532910000000     0.825370000000     0.017630000000    -0.105727   
N19      N      0.537790000000     0.696570000000     0.932250000000    -0.111732   
N20      N      0.542640000000     0.622200000000     0.913290000000    -0.179524   
N21      N      0.546940000000     0.113030000000     0.018700000000    -0.173953   
N22      N      0.550080000000     0.189620000000     0.008650000000    -0.107888   
N23      N      0.551190000000     0.333710000000     0.950150000000    -0.111905   
N24      N      0.549300000000     0.410160000000     0.939620000000    -0.180286   
N25      N      0.533450000000     0.995550000000     0.921390000000    -0.173693   
N26      N      0.530050000000     0.998900000000     0.846360000000    -0.107841   
N27      N      0.525190000000     0.047370000000     0.702170000000    -0.112179   
N28      N      0.528320000000     0.049110000000     0.627150000000    -0.18086    
N29      N      0.543200000000     0.019200000000     0.127790000000    -0.173552   
N30      N      0.546760000000     0.023120000000     0.202600000000    -0.105204   
N31      N      0.549130000000     0.992360000000     0.351130000000    -0.111479   
N32      N      0.545380000000     0.998790000000     0.425700000000    -0.179952   
N33      N      0.916750000000     0.401400000000     0.493820000000    -0.096076   
N34      N      0.852750000000     0.441910000000     0.474780000000    -0.106834   
N35      N      0.698700000000     0.487540000000     0.453640000000    -0.116551   
N36      N      0.633110000000     0.531100000000     0.437280000000    -0.225557   
N37      N      0.146120000000     0.639750000000     0.489060000000    -0.0993589  
N38      N      0.214550000000     0.607920000000     0.467650000000    -0.108628   
N39      N      0.372620000000     0.571480000000     0.457360000000    -0.116196   
N40      N      0.444390000000     0.546760000000     0.430220000000    -0.222499   
N41      N      0.640490000000     0.518470000000     0.926850000000    -0.227621   
N42      N      0.720760000000     0.519620000000     0.917850000000    -0.110964   
N43      N      0.879690000000     0.509050000000     0.949530000000    -0.113894   
N44      N      0.958470000000     0.505700000000     0.942870000000    -0.0994701  
N45      N      0.452140000000     0.514010000000     0.934810000000    -0.229648   
N46      N      0.372120000000     0.512460000000     0.944760000000    -0.106077   
N47      N      0.215470000000     0.477620000000     0.921170000000    -0.114239   
N48      N      0.138170000000     0.465490000000     0.932140000000    -0.101894   
N49      N      0.008350000000     0.526540000000     0.628210000000    -0.175782   
N50      N      0.001860000000     0.528290000000     0.703080000000    -0.109897   
N51      N      0.037380000000     0.525530000000     0.850800000000    -0.112955   
N52      N      0.043380000000     0.524110000000     0.924910000000    -0.177843   
N53      N      0.088530000000     0.517050000000     0.128060000000    -0.173129   
N54      N      0.092560000000     0.516040000000     0.203040000000    -0.104393   
N55      N      0.053930000000     0.520060000000     0.350070000000    -0.111222   
N56      N      0.049760000000     0.519590000000     0.424590000000    -0.180569   
N57      N      0.095600000000     0.912870000000     0.552520000000    -0.0867456  
N58      N      0.094060000000     0.837790000000     0.539630000000    -0.107275   
N59      N      0.049610000000     0.687240000000     0.536560000000    -0.114615   
N60      N      0.056050000000     0.609980000000     0.526540000000    -0.227195   
N61      N      0.963590000000     0.130940000000     0.542310000000    -0.0875291  
N62      N      0.970350000000     0.206340000000     0.535410000000    -0.106951   
N63      N      0.018890000000     0.355700000000     0.539850000000    -0.114841   
N64      N      0.012790000000     0.432760000000     0.526330000000    -0.220896   
N65      N      0.946480000000     0.013320000000     0.573210000000    -0.0877881  
N66      N      0.870280000000     0.027060000000     0.557420000000    -0.102348   
N67      N      0.707580000000     0.019060000000     0.553460000000    -0.115211   
N68      N      0.631400000000     0.032550000000     0.530300000000    -0.227781   
N69      N      0.131870000000     0.980230000000     0.478600000000    -0.0945799  
N70      N      0.208690000000     0.998340000000     0.483610000000    -0.104674   
N71      N      0.365120000000     0.004640000000     0.525550000000    -0.113635   
N72      N      0.443950000000     0.021240000000     0.517480000000    -0.229256   
N73      N      0.069300000000     0.610010000000     0.030220000000    -0.22614    
N74      N      0.068430000000     0.687650000000     0.029230000000    -0.106705   
N75      N      0.104360000000     0.836260000000     0.063420000000    -0.11371    
N76      N      0.104920000000     0.912400000000     0.065040000000    -0.0962875  
N77      N      0.060090000000     0.428970000000     0.023580000000    -0.228101   
N78      N      0.060750000000     0.351490000000     0.019590000000    -0.106668   
N79      N      0.008910000000     0.204950000000     0.997130000000    -0.114508   
N80      N      0.006180000000     0.129020000000     0.992460000000    -0.0991964  
N81      N      0.949110000000     0.965920000000     0.013170000000    -0.0868215  
N82      N      0.870020000000     0.967350000000     0.018070000000    -0.106901   
N83      N      0.712710000000     0.007550000000     0.009350000000    -0.115123   
N84      N      0.633160000000     0.998850000000     0.022440000000    -0.230817   
N85      N      0.445760000000     0.012570000000     0.029550000000    -0.228151   
N86      N      0.366170000000     0.021450000000     0.038680000000    -0.109922   
N87      N      0.225140000000     0.058210000000     0.105680000000    -0.113851   
N88      N      0.148180000000     0.059190000000     0.123670000000    -0.0952389  
N89      N      0.991810000000     0.128800000000     0.654420000000    -0.0913363  
N90      N      0.009810000000     0.132730000000     0.726320000000    -0.10619    
N91      N      0.091290000000     0.127290000000     0.857570000000    -0.114084   
N92      N      0.108350000000     0.126880000000     0.929690000000    -0.100205   
N93      N      0.077410000000     0.013580000000     0.160680000000    -0.0891918  
N94      N      0.055180000000     0.995170000000     0.229230000000    -0.106455   
N95      N      0.052430000000     0.953970000000     0.375590000000    -0.112753   
N96      N      0.026060000000     0.930860000000     0.441620000000    -0.0987927  
O1       O      0.095090000000     0.004570000000     0.073300000000    -0.360325   
O2       O      0.001330000000     0.036410000000     0.017920000000    -0.37211    
O3       O      0.034920000000     0.967150000000     0.036370000000    -0.351715   
O4       O      0.061520000000     0.073810000000     0.054860000000    -0.372705   
O5       O      0.096080000000     0.075070000000     0.004610000000    -0.369962   
O6       O      0.069610000000     0.968340000000     0.986200000000    -0.371998   
O7       O      0.035890000000     0.037400000000     0.967680000000    -0.37395    
O8       O      0.129780000000     0.005910000000     0.023110000000    -0.374199   
O9       O      0.129920000000     0.071880000000     0.599990000000    -0.369222   
O10      O      0.064720000000     0.992010000000     0.555660000000    -0.360437   
O11      O      0.066100000000     0.070600000000     0.552220000000    -0.360071   
O12      O      0.128690000000     0.993220000000     0.603360000000    -0.362433   
O13      O      0.088760000000     0.996140000000     0.649980000000    -0.371877   
O14      O      0.025770000000     0.073030000000     0.598520000000    -0.368798   
O15      O      0.024900000000     0.994380000000     0.602350000000    -0.366581   
O16      O      0.089610000000     0.074800000000     0.646310000000    -0.374963   
O17      O      0.073380000000     0.488580000000     0.075760000000    -0.473502   
O18      O      0.051250000000     0.492410000000     0.976770000000    -0.481576   
O19      O      0.116510000000     0.486390000000     0.015110000000    -0.443828   
O20      O      0.009810000000     0.489440000000     0.036380000000    -0.457102   
O21      O      0.012770000000     0.550250000000     0.038470000000    -0.446031   
O22      O      0.119390000000     0.547250000000     0.017000000000    -0.44989    
O23      O      0.055890000000     0.552750000000     0.977670000000    -0.47701    
O24      O      0.078600000000     0.548830000000     0.076570000000    -0.478473   
O25      O      0.987890000000     0.562350000000     0.517800000000    -0.453049   
O26      O      0.092110000000     0.539870000000     0.538570000000    -0.462954   
O27      O      0.049400000000     0.549780000000     0.477730000000    -0.485756   
O28      O      0.027270000000     0.554300000000     0.576650000000    -0.484973   
O29      O      0.017280000000     0.494670000000     0.576640000000    -0.482149   
O30      O      0.036240000000     0.490660000000     0.477030000000    -0.47614    
O31      O      0.079590000000     0.480190000000     0.536550000000    -0.461991   
O32      O      0.974900000000     0.502620000000     0.517950000000    -0.443789   
O33      O      0.509410000000     0.012550000000     0.076240000000    -0.476031   
O34      O      0.504100000000     0.002010000000     0.975430000000    -0.473515   
O35      O      0.505980000000     0.955970000000     0.031680000000    -0.474756   
O36      O      0.512760000000     0.059690000000     0.021800000000    -0.482479   
O37      O      0.575650000000     0.056790000000     0.019610000000    -0.483246   
O38      O      0.568730000000     0.953210000000     0.029320000000    -0.488731   
O39      O      0.567050000000     0.001460000000     0.973200000000    -0.487571   
O40      O      0.572280000000     0.011040000000     0.073950000000    -0.477995   
O41      O      0.510300000000     0.011160000000     0.475370000000    -0.480239   
O42      O      0.500880000000     0.035110000000     0.573650000000    -0.485171   
O43      O      0.503970000000     0.074820000000     0.511840000000    -0.477894   
O44      O      0.508670000000     0.973290000000     0.535720000000    -0.483398   
O45      O      0.571450000000     0.976570000000     0.538340000000    -0.482797   
O46      O      0.566730000000     0.078440000000     0.514620000000    -0.480251   
O47      O      0.563610000000     0.039400000000     0.576880000000    -0.485768   
O48      O      0.572930000000     0.015410000000     0.478420000000    -0.480153   
O49      O      0.516330000000     0.463980000000     0.934980000000    -0.485997   
O50      O      0.513010000000     0.567180000000     0.921690000000    -0.482327   
O51      O      0.512010000000     0.509040000000     0.881410000000    -0.474889   
O52      O      0.517270000000     0.522700000000     0.981540000000    -0.482512   
O53      O      0.580220000000     0.524280000000     0.980060000000    -0.478681   
O54      O      0.575040000000     0.509210000000     0.879420000000    -0.469584   
O55      O      0.575760000000     0.569240000000     0.923260000000    -0.479349   
O56      O      0.579100000000     0.465810000000     0.937090000000    -0.487941   
O57      O      0.503420000000     0.490430000000     0.444360000000    -0.475088   
O58      O      0.514690000000     0.592440000000     0.423430000000    -0.483222   
O59      O      0.506870000000     0.530490000000     0.383630000000    -0.473071   
O60      O      0.504960000000     0.552840000000     0.482970000000    -0.484551   
O61      O      0.567790000000     0.550350000000     0.484620000000    -0.483261   
O62      O      0.569620000000     0.526730000000     0.385980000000    -0.487134   
O63      O      0.577420000000     0.588100000000     0.426330000000    -0.480565   
O64      O      0.566040000000     0.486860000000     0.449050000000    -0.490845   
O65      O      0.447150000000     0.444220000000     0.794130000000    -0.283239   
O66      O      0.501860000000     0.427720000000     0.842940000000    -0.179055   
O67      O      0.520120000000     0.430210000000     0.773130000000    -0.179472   
O68      O      0.520220000000     0.438510000000     0.288820000000    -0.275457   
O69      O      0.446330000000     0.459300000000     0.299020000000    -0.180986   
O70      O      0.492490000000     0.448950000000     0.355680000000    -0.176114   
O71      O      0.525180000000     0.845720000000     0.600340000000    -0.275892   
O72      O      0.452170000000     0.870160000000     0.592860000000    -0.182035   
O73      O      0.506300000000     0.915660000000     0.618890000000    -0.178209   
O74      O      0.519180000000     0.158730000000     0.414570000000    -0.274911   
O75      O      0.443930000000     0.147070000000     0.428940000000    -0.182451   
O76      O      0.493770000000     0.090660000000     0.432600000000    -0.17697    
O77      O      0.441960000000     0.859730000000     0.089140000000    -0.265755   
O78      O      0.503500000000     0.899040000000     0.111530000000    -0.178644   
O79      O      0.512030000000     0.828020000000     0.093160000000    -0.167235   
O80      O      0.643320000000     0.153090000000     0.067970000000    -0.27792    
O81      O      0.592280000000     0.101430000000     0.088850000000    -0.169888   
O82      O      0.569840000000     0.171900000000     0.083620000000    -0.176391   
O83      O      0.513070000000     0.922960000000     0.862390000000    -0.271726   
O84      O      0.444810000000     0.928950000000     0.896690000000    -0.169092   
O85      O      0.509320000000     0.917900000000     0.934210000000    -0.162807   
O86      O      0.527790000000     0.097020000000     0.173510000000    -0.270041   
O87      O      0.452900000000     0.079650000000     0.164620000000    -0.175387   
O88      O      0.497390000000     0.089700000000     0.107100000000    -0.170171   
O89      O      0.923090000000     0.478650000000     0.446650000000    -0.272575   
O90      O      0.928710000000     0.431950000000     0.390430000000    -0.18526    
O91      O      0.980740000000     0.428580000000     0.443270000000    -0.188487   
O92      O      0.162860000000     0.602430000000     0.405770000000    -0.270866   
O93      O      0.159310000000     0.674460000000     0.387800000000    -0.172463   
O94      O      0.099490000000     0.643240000000     0.420970000000    -0.190324   
O95      O      0.691590000000     0.551580000000     0.853560000000    -0.27526    
O96      O      0.671930000000     0.617070000000     0.882700000000    -0.192014   
O97      O      0.617300000000     0.570350000000     0.861660000000    -0.171868   
O98      O      0.399110000000     0.564030000000     0.996640000000    -0.277321   
O99      O      0.413350000000     0.619160000000     0.950120000000    -0.188536   
O100     O      0.471960000000     0.584430000000     0.981870000000    -0.183369   
O101     O      0.923950000000     0.518200000000     0.672310000000    -0.269483   
O102     O      0.933630000000     0.445680000000     0.657030000000    -0.190048   
O103     O      0.930700000000     0.495070000000     0.603940000000    -0.171315   
O104     O      0.170690000000     0.523710000000     0.174960000000    -0.271569   
O105     O      0.163630000000     0.596380000000     0.159560000000    -0.179806   
O106     O      0.167580000000     0.546910000000     0.106210000000    -0.168057   
O107     O      0.174380000000     0.867590000000     0.531570000000    -0.277519   
O108     O      0.185740000000     0.865580000000     0.603130000000    -0.180296   
O109     O      0.180850000000     0.930920000000     0.569660000000    -0.182745   
O110     O      0.890120000000     0.186900000000     0.521390000000    -0.275176   
O111     O      0.871210000000     0.175930000000     0.590780000000    -0.174745   
O112     O      0.876490000000     0.118050000000     0.546280000000    -0.170308   
O113     O      0.917080000000     0.063200000000     0.501880000000    -0.260773   
O114     O      0.937390000000     0.001110000000     0.466510000000    -0.187616   
O115     O      0.989720000000     0.036920000000     0.506350000000    -0.174808   
O116     O      0.172930000000     0.048200000000     0.431060000000    -0.276158   
O117     O      0.137610000000     0.091390000000     0.480110000000    -0.178605   
O118     O      0.095660000000     0.045730000000     0.439200000000    -0.178876   
O119     O      0.989700000000     0.676850000000     0.007400000000    -0.278387   
O120     O      0.958500000000     0.621770000000     0.046340000000    -0.18164    
O121     O      0.997920000000     0.606040000000     0.986760000000    -0.187812   
O122     O      0.129920000000     0.366760000000     0.055580000000    -0.277949   
O123     O      0.101890000000     0.391540000000     0.118330000000    -0.188346   
O124     O      0.132560000000     0.439210000000     0.071590000000    -0.170433   
O125     O      0.897530000000     0.906420000000     0.062560000000    -0.277221   
O126     O      0.923000000000     0.949120000000     0.116940000000    -0.178101   
O127     O      0.973790000000     0.915020000000     0.074060000000    -0.162801   
O128     O      0.372470000000     0.966540000000     0.984050000000    -0.26735    
O129     O      0.398710000000     0.910170000000     0.024560000000    -0.186268   
O130     O      0.446350000000     0.944960000000     0.979740000000    -0.152981   
O131     O      0.925920000000     0.130000000000     0.722120000000    -0.274315   
O132     O      0.917540000000     0.058970000000     0.701100000000    -0.187412   
O133     O      0.906680000000     0.113760000000     0.653800000000    -0.177519   
O134     O      0.987730000000     0.990640000000     0.182680000000    -0.278116   
O135     O      0.007520000000     0.924910000000     0.153790000000    -0.174804   
O136     O      0.010950000000     0.986430000000     0.113720000000    -0.193398   
S1       S      0.493520000000     0.448880000000     0.804750000000     0.285213   
S2       S      0.490550000000     0.463720000000     0.314070000000     0.286211   
S3       S      0.497730000000     0.882110000000     0.590260000000     0.283639   
S4       S      0.488070000000     0.135160000000     0.439820000000     0.285754   
S5       S      0.489090000000     0.866570000000     0.083770000000     0.285641   
S6       S      0.597380000000     0.139810000000     0.065800000000     0.286145   
S7       S      0.490950000000     0.938770000000     0.899010000000     0.291468   
S8       S      0.496400000000     0.073670000000     0.148310000000     0.290445   
S9       S      0.935240000000     0.436030000000     0.433860000000     0.287408   
S10      S      0.146710000000     0.643960000000     0.418240000000     0.284914   
S11      S      0.660080000000     0.573140000000     0.880100000000     0.281499   
S12      S      0.428860000000     0.578930000000     0.964660000000     0.281104   
S13      S      0.945520000000     0.487940000000     0.645180000000     0.283269   
S14      S      0.151380000000     0.554470000000     0.146930000000     0.287518   
S15      S      0.164610000000     0.888290000000     0.570460000000     0.287228   
S16      S      0.894690000000     0.158610000000     0.556430000000     0.290063   
S17      S      0.944140000000     0.025150000000     0.503340000000     0.28325    
S18      S      0.136790000000     0.050780000000     0.460380000000     0.284456   
S19      S      0.995750000000     0.633520000000     0.021700000000     0.285307   
S20      S      0.106680000000     0.401460000000     0.075600000000     0.281275   
S21      S      0.931750000000     0.935820000000     0.075650000000     0.294242   
S22      S      0.410000000000     0.950540000000     0.007270000000     0.281875   
S23      S      0.932130000000     0.100190000000     0.688510000000     0.281179   
S24      S      0.017260000000     0.969370000000     0.154090000000     0.29767    


