data_structure

_audit_creation_method RASPA-1.0
_audit_creation_date 2023-5-25
_audit_author_name 'Poobodin Mano'

_cell_length_a    37.0533
_cell_length_b    38.1274
_cell_length_c    37.8822
_cell_angle_alpha 90
_cell_angle_beta  90
_cell_angle_gamma 90
_cell_volume      53517.9

_symmetry_cell_setting          triclinic
_symmetry_space_group_name_Hall 'P 1'
_symmetry_space_group_name_H-M  'P 1'
_symmetry_Int_Tables_number     1

_symmetry_equiv_pos_as_xyz 'x,y,z'

loop_
_atom_site_label
_atom_site_type_symbol
_atom_site_fract_x
_atom_site_fract_y
_atom_site_fract_z
_atom_site_charge
Br1      Br     0.490440000000     0.416080000000     0.862320000000    -0.229993   
Br2      Br     0.445650000000     0.566460000000     0.095210000000    -0.251101   
Br3      Br     0.594320000000     0.578290000000     0.528360000000    -0.251581   
Br4      Br     0.431870000000     0.129950000000     0.443690000000    -0.247511   
Br5      Br     0.570510000000     0.880590000000     0.016430000000    -0.237255   
Br6      Br     0.570830000000     0.384250000000     0.948570000000    -0.234715   
Br7      Br     0.526360000000     0.047030000000     0.870440000000    -0.253283   
Br8      Br     0.457630000000     0.948520000000     0.102360000000    -0.243766   
Br9      Br     0.666220000000     0.517580000000     0.419300000000    -0.240891   
Br10     Br     0.157630000000     0.463350000000     0.581050000000    -0.244468   
Br11     Br     0.605470000000     0.558020000000     0.920930000000    -0.25165    
Br12     Br     0.120520000000     0.483740000000     0.946870000000    -0.251418   
Br13     Br     0.977510000000     0.548840000000     0.910260000000    -0.246819   
Br14     Br     0.926340000000     0.496080000000     0.429110000000    -0.248481   
Br15     Br     0.025530000000     0.859420000000     0.553060000000    -0.241492   
Br16     Br     0.981170000000     0.126800000000     0.472530000000    -0.23439    
Br17     Br     0.640790000000     0.005480000000     0.569080000000    -0.249212   
Br18     Br     0.132020000000     0.070630000000     0.572610000000    -0.248132   
Br19     Br     0.036770000000     0.872770000000     0.061580000000    -0.234565   
Br20     Br     0.956580000000     0.144300000000     0.128620000000    -0.246642   
Br21     Br     0.889350000000     0.886790000000     0.017680000000    -0.245994   
Br22     Br     0.118380000000     0.110520000000     0.055710000000    -0.249216   
Br23     Br     0.959790000000     0.013050000000     0.879860000000    -0.249565   
Br24     Br     0.974720000000     0.959780000000     0.377240000000    -0.234746   
C1       C      0.068950000000     0.037810000000     0.005610000000     0.406731   
C2       C      0.946050000000     0.966780000000     0.990270000000     0.406116   
C3       C      0.044600000000     0.943200000000     0.994450000000     0.318953   
C4       C      0.970460000000     0.061530000000     0.001340000000     0.312452   
C5       C      0.947090000000     0.954280000000     0.487460000000     0.401981   
C6       C      0.072480000000     0.019460000000     0.507930000000     0.407167   
C7       C      0.044270000000     0.933840000000     0.468190000000     0.316864   
C8       C      0.975120000000     0.040050000000     0.527360000000     0.313187   
C9       C      0.999840000000     0.506160000000     0.103580000000     0.472327   
C10      C      0.016850000000     0.494620000000     0.971270000000     0.490875   
C11      C      0.075960000000     0.487950000000     0.045960000000     0.376594   
C12      C      0.944370000000     0.516470000000     0.027560000000     0.369908   
C13      C      0.087160000000     0.496460000000     0.529910000000     0.481613   
C14      C      0.953320000000     0.477820000000     0.551060000000     0.479589   
C15      C      0.008450000000     0.490630000000     0.472800000000     0.485039   
C16      C      0.033160000000     0.483230000000     0.604300000000     0.474712   
C17      C      0.511950000000     0.075310000000     0.000770000000     0.400243   
C18      C      0.504270000000     0.936340000000     0.991170000000     0.411971   
C19      C      0.436310000000     0.008760000000     0.002240000000     0.399726   
C20      C      0.579480000000     0.002520000000     0.990500000000     0.402054   
C21      C      0.505650000000     0.042820000000     0.528300000000     0.308304   
C22      C      0.512570000000     0.925870000000     0.453400000000     0.30141    
C23      C      0.437600000000     0.984920000000     0.483730000000     0.40002    
C24      C      0.580580000000     0.983670000000     0.498130000000     0.407301   
C25      C      0.511730000000     0.493830000000     0.908920000000     0.485698   
C26      C      0.507970000000     0.519390000000     0.040250000000     0.484086   
C27      C      0.508890000000     0.441280000000     0.985190000000     0.48617    
C28      C      0.504990000000     0.572100000000     0.961630000000     0.48071    
C29      C      0.456100000000     0.501720000000     0.471530000000     0.475542   
C30      C      0.592100000000     0.485000000000     0.472860000000     0.485403   
C31      C      0.521690000000     0.489380000000     0.540580000000     0.473319   
C32      C      0.523860000000     0.501260000000     0.407230000000     0.47488    
C33      C      0.541150000000     0.498130000000     0.815810000000    -0.0296841  
C34      C      0.509510000000     0.450960000000     0.630840000000    -0.0317017  
C35      C      0.526890000000     0.518310000000     0.598290000000    -0.00490504 
C36      C      0.499120000000     0.457120000000     0.592260000000    -0.00238011 
C37      C      0.491130000000     0.504310000000     0.708810000000    -0.0517063  
C38      C      0.534410000000     0.454040000000     0.741730000000    -0.0505905  
C39      C      0.511310000000     0.481050000000     0.688070000000     0.062596   
C40      C      0.536820000000     0.508330000000     0.636120000000    -0.0299856  
C41      C      0.513420000000     0.476670000000     0.762420000000     0.0654503  
C42      C      0.479760000000     0.475920000000     0.817940000000    -0.0594579  
C43      C      0.492610000000     0.502690000000     0.745600000000    -0.0551056  
C44      C      0.483120000000     0.466340000000     0.857050000000     0.121657   
C45      C      0.547820000000     0.488580000000     0.854480000000    -0.000178549
C46      C      0.533980000000     0.456530000000     0.704910000000    -0.0535836  
C47      C      0.541190000000     0.532010000000     0.131220000000    -0.0314215  
C48      C      0.536940000000     0.535980000000     0.315650000000    -0.0317888  
C49      C      0.501750000000     0.477280000000     0.351210000000    -0.00189465 
C50      C      0.528860000000     0.539100000000     0.355070000000    -0.00090039 
C51      C      0.531030000000     0.497400000000     0.238970000000    -0.0539435  
C52      C      0.487210000000     0.549290000000     0.209260000000    -0.0523029  
C53      C      0.509000000000     0.518120000000     0.260980000000     0.0622968  
C54      C      0.510420000000     0.478250000000     0.311800000000    -0.0315264  
C55      C      0.508500000000     0.528310000000     0.187200000000     0.0649912  
C56      C      0.479530000000     0.510380000000     0.133030000000    -0.0603078  
C57      C      0.529950000000     0.501730000000     0.202350000000    -0.0555355  
C58      C      0.472190000000     0.522410000000     0.095100000000     0.123335   
C59      C      0.536920000000     0.544630000000     0.093190000000     0.00300211 
C60      C      0.487250000000     0.544080000000     0.245730000000    -0.0517073  
C61      C      0.510390000000     0.635770000000     0.504850000000    -0.0225863  
C62      C      0.584740000000     0.813860000000     0.521450000000    -0.0263459  
C63      C      0.518160000000     0.850340000000     0.539380000000    -0.0237946  
C64      C      0.582160000000     0.853910000000     0.518710000000    -0.0222903  
C65      C      0.539220000000     0.743750000000     0.482750000000    -0.0526641  
C66      C      0.560600000000     0.703010000000     0.540480000000    -0.0518426  
C67      C      0.550150000000     0.760290000000     0.513980000000     0.0622969  
C68      C      0.522040000000     0.810480000000     0.541950000000    -0.0256513  
C69      C      0.549260000000     0.686470000000     0.509380000000     0.0640524  
C70      C      0.571840000000     0.633400000000     0.481590000000    -0.0519107  
C71      C      0.538740000000     0.707170000000     0.480350000000    -0.055827   
C72      C      0.571480000000     0.593240000000     0.484380000000     0.106925   
C73      C      0.509690000000     0.595720000000     0.507510000000    -0.0137802  
C74      C      0.561090000000     0.739610000000     0.542880000000    -0.0550858  
C75      C      0.528930000000     0.173560000000     0.425630000000    -0.0260528  
C76      C      0.492220000000     0.352410000000     0.489350000000    -0.0236886  
C77      C      0.541960000000     0.391770000000     0.446490000000    -0.0196327  
C78      C      0.502160000000     0.390630000000     0.497370000000    -0.0174951  
C79      C      0.537960000000     0.273450000000     0.480080000000    -0.0522872  
C80      C      0.481420000000     0.250910000000     0.436750000000    -0.0516397  
C81      C      0.515230000000     0.298300000000     0.464360000000     0.0624225  
C82      C      0.532070000000     0.353770000000     0.437800000000    -0.0227385  
C83      C      0.504310000000     0.226070000000     0.452270000000     0.0643562  
C84      C      0.488840000000     0.169260000000     0.476940000000    -0.0565072  
C85      C      0.532640000000     0.237620000000     0.474180000000    -0.055697   
C86      C      0.478570000000     0.131500000000     0.467060000000     0.108709   
C87      C      0.519220000000     0.136240000000     0.414190000000    -0.0173026  
C88      C      0.486730000000     0.286730000000     0.442670000000    -0.0548113  
C89      C      0.484030000000     0.847560000000     0.954830000000    -0.0317731  
C90      C      0.467730000000     0.662100000000     0.955990000000    -0.0323218  
C91      C      0.538070000000     0.627790000000     0.956060000000    -0.00185479 
C92      C      0.471200000000     0.624600000000     0.941690000000    -0.00160027 
C93      C      0.522670000000     0.740020000000     0.937370000000    -0.0527315  
C94      C      0.482670000000     0.769080000000     0.992680000000    -0.0539092  
C95      C      0.500700000000     0.718220000000     0.957920000000     0.0633121  
C96      C      0.531360000000     0.664210000000     0.971180000000    -0.0313049  
C97      C      0.505710000000     0.790620000000     0.972520000000     0.0655532  
C98      C      0.505490000000     0.840280000000     0.014510000000    -0.0579459  
C99      C      0.525470000000     0.775680000000     0.944830000000    -0.0509499  
C100     C      0.518000000000     0.878630000000     0.017080000000     0.118154   
C101     C      0.497090000000     0.885330000000     0.952670000000     0.00107    
C102     C      0.481020000000     0.732990000000     0.986120000000    -0.0537614  
C103     C      0.480010000000     0.347280000000     0.994080000000    -0.0296684  
C104     C      0.502070000000     0.169540000000     0.976820000000    -0.029246   
C105     C      0.530030000000     0.127380000000     0.034940000000    -0.00689673 
C106     C      0.512390000000     0.131570000000     0.969630000000    -0.00724087 
C107     C      0.499610000000     0.240540000000     0.024450000000    -0.0535826  
C108     C      0.544560000000     0.276100000000     0.977220000000    -0.0518591  
C109     C      0.525100000000     0.221640000000     0.004410000000     0.062707   
C110     C      0.520440000000     0.166390000000     0.037900000000    -0.0298695  
C111     C      0.519070000000     0.295000000000     0.996770000000     0.0672069  
C112     C      0.542680000000     0.352670000000     0.010990000000    -0.0599168  
C113     C      0.497370000000     0.277050000000     0.021440000000    -0.0557043  
C114     C      0.546440000000     0.388830000000     0.993940000000     0.122725   
C115     C      0.479310000000     0.384070000000     0.977950000000     0.000882421
C116     C      0.547820000000     0.239920000000     0.981280000000    -0.0504758  
C117     C      0.528170000000     0.947070000000     0.837380000000    -0.0277003  
C118     C      0.549070000000     0.977980000000     0.647070000000    -0.025249   
C119     C      0.512700000000     0.916690000000     0.618090000000    -0.0220467  
C120     C      0.555120000000     0.966840000000     0.608720000000    -0.0211523  
C121     C      0.564310000000     0.940660000000     0.728630000000    -0.0520447  
C122     C      0.511410000000     0.985440000000     0.755900000000    -0.0507461  
C123     C      0.538670000000     0.955390000000     0.705880000000     0.0634419  
C124     C      0.507570000000     0.928680000000     0.656340000000    -0.0266104  
C125     C      0.536940000000     0.970560000000     0.778680000000     0.0644457  
C126     C      0.567040000000     0.998350000000     0.828100000000    -0.0567365  
C127     C      0.563590000000     0.948150000000     0.764720000000    -0.0552027  
C128     C      0.562000000000     0.009790000000     0.866620000000     0.1068     
C129     C      0.521940000000     0.957480000000     0.875890000000    -0.0140846  
C130     C      0.512210000000     0.978050000000     0.719770000000    -0.0545391  
C131     C      0.520250000000     0.020580000000     0.149430000000    -0.0232355  
C132     C      0.457090000000     0.995580000000     0.331680000000    -0.0269308  
C133     C      0.468890000000     0.065220000000     0.361110000000    -0.0244254  
C134     C      0.457840000000     0.001380000000     0.371660000000    -0.0206632  
C135     C      0.517870000000     0.006600000000     0.263340000000    -0.0526997  
C136     C      0.458740000000     0.009740000000     0.217540000000    -0.0513573  
C137     C      0.483740000000     0.015090000000     0.276730000000     0.0626255  
C138     C      0.468130000000     0.058210000000     0.321300000000    -0.0258483  
C139     C      0.492890000000     0.001330000000     0.204140000000     0.0640058  
C140     C      0.507870000000     0.958180000000     0.159420000000    -0.0570848  
C141     C      0.522530000000     0.999730000000     0.227380000000    -0.055507   
C142     C      0.507030000000     0.951190000000     0.119520000000     0.108584   
C143     C      0.519380000000     0.015220000000     0.109410000000    -0.024496   
C144     C      0.454070000000     0.016560000000     0.253510000000    -0.0549518  
C145     C      0.678810000000     0.441710000000     0.491070000000    -0.0316478  
C146     C      0.859180000000     0.500320000000     0.544110000000    -0.0339245  
C147     C      0.901350000000     0.437060000000     0.556550000000     0.000156831
C148     C      0.893230000000     0.501730000000     0.566830000000     0.000962286
C149     C      0.776680000000     0.462850000000     0.551200000000    -0.0526045  
C150     C      0.769280000000     0.468470000000     0.477960000000    -0.0486059  
C151     C      0.807570000000     0.464540000000     0.529990000000     0.0644342  
C152     C      0.866790000000     0.437380000000     0.534400000000    -0.0335727  
C153     C      0.738380000000     0.467020000000     0.499190000000     0.0644782  
C154     C      0.687150000000     0.505040000000     0.490930000000    -0.0591395  
C155     C      0.742330000000     0.464290000000     0.536080000000    -0.0546794  
C156     C      0.653250000000     0.510620000000     0.468570000000     0.122013   
C157     C      0.644380000000     0.444670000000     0.468910000000     0.00366326 
C158     C      0.803640000000     0.467450000000     0.493120000000    -0.0550353  
C159     C      0.174530000000     0.540450000000     0.509070000000    -0.0319915  
C160     C      0.359630000000     0.480700000000     0.480860000000    -0.0316205  
C161     C      0.404120000000     0.542280000000     0.467340000000    -0.00234273 
C162     C      0.395580000000     0.476590000000     0.461670000000    -0.00230465 
C163     C      0.279390000000     0.518310000000     0.460950000000    -0.0527365  
C164     C      0.263210000000     0.516650000000     0.533030000000    -0.0516763  
C165     C      0.307490000000     0.517930000000     0.485660000000     0.0620573  
C166     C      0.367480000000     0.543800000000     0.485980000000    -0.0318346  
C167     C      0.235120000000     0.516300000000     0.508300000000     0.0643962  
C168     C      0.183840000000     0.477600000000     0.511500000000    -0.0606973  
C169     C      0.243460000000     0.517380000000     0.472050000000    -0.0561842  
C170     C      0.148350000000     0.471510000000     0.531140000000     0.123656   
C171     C      0.138350000000     0.537760000000     0.528360000000     0.00314982 
C172     C      0.299140000000     0.517340000000     0.521930000000    -0.0546129  
C173     C      0.655240000000     0.479120000000     0.965970000000    -0.0201826  
C174     C      0.840790000000     0.546200000000     0.952770000000    -0.0257713  
C175     C      0.882100000000     0.481230000000     0.954930000000    -0.024412   
C176     C      0.881330000000     0.546660000000     0.960440000000    -0.0225608  
C177     C      0.765770000000     0.508680000000     0.993210000000    -0.0522836  
C178     C      0.730520000000     0.516450000000     0.928400000000    -0.0507808  
C179     C      0.786150000000     0.512580000000     0.962330000000     0.0629607  
C180     C      0.841510000000     0.482090000000     0.947340000000    -0.0253319  
C181     C      0.710130000000     0.512820000000     0.959320000000     0.0648745  
C182     C      0.654830000000     0.542150000000     0.976960000000    -0.0522103  
C183     C      0.728070000000     0.508670000000     0.991830000000    -0.0554093  
C184     C      0.614160000000     0.543490000000     0.969620000000     0.107345   
C185     C      0.614560000000     0.479920000000     0.958850000000    -0.0178093  
C186     C      0.768210000000     0.516240000000     0.929750000000    -0.0545029  
C187     C      0.180570000000     0.562320000000     0.986680000000    -0.0263226  
C188     C      0.362280000000     0.498780000000     0.940230000000    -0.021745   
C189     C      0.403720000000     0.532740000000     0.994580000000    -0.0278109  
C190     C      0.403540000000     0.501770000000     0.938500000000    -0.0219443  
C191     C      0.290310000000     0.557260000000     0.946510000000    -0.0524637  
C192     C      0.250320000000     0.502860000000     0.976890000000    -0.0508978  
C193     C      0.308360000000     0.528420000000     0.961110000000     0.0629663  
C194     C      0.362630000000     0.529440000000     0.996770000000    -0.0189417  
C195     C      0.232280000000     0.531820000000     0.962510000000     0.0640576  
C196     C      0.176380000000     0.533230000000     0.929090000000    -0.0563893  
C197     C      0.252620000000     0.559060000000     0.947150000000    -0.0554012  
C198     C      0.135150000000     0.530580000000     0.932450000000     0.107208   
C199     C      0.139680000000     0.559720000000     0.991740000000    -0.0170523  
C200     C      0.288020000000     0.501080000000     0.976270000000    -0.0545212  
C201     C      0.024710000000     0.455650000000     0.880780000000    -0.0336381  
C202     C      0.037060000000     0.513030000000     0.696520000000    -0.0309987  
C203     C      0.047590000000     0.448030000000     0.657340000000    -0.00276565 
C204     C      0.051270000000     0.514260000000     0.658720000000    -0.0025517  
C205     C      0.068700000000     0.477300000000     0.775070000000    -0.0516476  
C206     C      0.998220000000     0.486310000000     0.799840000000    -0.0500083  
C207     C      0.040230000000     0.480150000000     0.750900000000     0.0631333  
C208     C      0.033500000000     0.449300000000     0.695340000000    -0.0310201  
C209     C      0.026780000000     0.484400000000     0.823960000000     0.0645199  
C210     C      0.038840000000     0.517380000000     0.877420000000    -0.0605344  
C211     C      0.062120000000     0.479150000000     0.811360000000    -0.0556026  
C212     C      0.023660000000     0.524800000000     0.914250000000     0.125891   
C213     C      0.008380000000     0.459210000000     0.917680000000     0.00833516 
C214     C      0.004730000000     0.484010000000     0.763600000000    -0.0558013  
C215     C      0.021800000000     0.477810000000     0.376920000000    -0.0328607  
C216     C      0.971130000000     0.480440000000     0.193340000000    -0.031197   
C217     C      0.011100000000     0.537120000000     0.159670000000    -0.00254602 
C218     C      0.962810000000     0.490370000000     0.155140000000    -0.00345411 
C219     C      0.990190000000     0.536000000000     0.272790000000    -0.0512026  
C220     C      0.986330000000     0.469980000000     0.304170000000    -0.0505251  
C221     C      0.987580000000     0.506220000000     0.251090000000     0.0617562  
C222     C      0.018510000000     0.524160000000     0.197260000000    -0.0320329  
C223     C      0.989350000000     0.499700000000     0.325840000000     0.0642069  
C224     C      0.980760000000     0.526440000000     0.385000000000    -0.0594007  
C225     C      0.992140000000     0.532890000000     0.309510000000    -0.0530031  
C226     C      0.974040000000     0.516820000000     0.423820000000     0.121985   
C227     C      0.015090000000     0.463950000000     0.414150000000     0.00409287 
C228     C      0.986580000000     0.472920000000     0.267450000000    -0.0529928  
C229     C      0.936700000000     0.801020000000     0.564600000000    -0.0255803  
C230     C      0.025860000000     0.628570000000     0.570790000000    -0.0234697  
C231     C      0.971560000000     0.583910000000     0.540260000000    -0.0198104  
C232     C      0.027150000000     0.588530000000     0.573740000000    -0.0186333  
C233     C      0.966720000000     0.694700000000     0.594490000000    -0.0526008  
C234     C      0.996220000000     0.734970000000     0.539940000000    -0.0510459  
C235     C      0.985070000000     0.678040000000     0.566870000000     0.0625421  
C236     C      0.969720000000     0.623870000000     0.536930000000    -0.0224618  
C237     C      0.977760000000     0.751620000000     0.567500000000     0.0648397  
C238     C      0.993950000000     0.806010000000     0.596600000000    -0.0546715  
C239     C      0.963070000000     0.731190000000     0.594940000000    -0.0560022  
C240     C      0.994060000000     0.845950000000     0.591840000000     0.104868   
C241     C      0.935330000000     0.840770000000     0.559050000000    -0.0175121  
C242     C      0.999940000000     0.698510000000     0.539530000000    -0.0540728  
C243     C      0.076970000000     0.175010000000     0.471800000000    -0.0265808  
C244     C      0.017110000000     0.342420000000     0.549260000000    -0.0244836  
C245     C      0.064030000000     0.391250000000     0.513700000000    -0.0167721  
C246     C      0.020700000000     0.380930000000     0.560310000000    -0.0150594  
C247     C      0.071440000000     0.269470000000     0.536300000000    -0.0512721  
C248     C      0.021690000000     0.247400000000     0.485390000000    -0.0514654  
C249     C      0.047940000000     0.293980000000     0.521100000000     0.0627582  
C250     C      0.061280000000     0.353010000000     0.501780000000    -0.0229813  
C251     C      0.045350000000     0.222980000000     0.500380000000     0.0655763  
C252     C      0.031480000000     0.163040000000     0.517170000000    -0.0571862  
C253     C      0.070200000000     0.234190000000     0.526150000000    -0.0557494  
C254     C      0.024320000000     0.126490000000     0.501780000000     0.10945    
C255     C      0.071030000000     0.138820000000     0.455250000000    -0.0164311  
C256     C      0.022840000000     0.282570000000     0.495590000000    -0.0543127  
C257     C      0.676260000000     0.984280000000     0.471050000000    -0.029999   
C258     C      0.860070000000     0.929440000000     0.517680000000    -0.0304141  
C259     C      0.893650000000     0.943110000000     0.449570000000    -0.00774322 
C260     C      0.897920000000     0.915610000000     0.509320000000    -0.00722037 
C261     C      0.793510000000     0.975300000000     0.508670000000    -0.0544258  
C262     C      0.738000000000     0.931880000000     0.484300000000    -0.055556   
C263     C      0.802020000000     0.943430000000     0.491770000000     0.0630366  
C264     C      0.856140000000     0.956770000000     0.459100000000    -0.0296331  
C265     C      0.729560000000     0.963750000000     0.501200000000     0.0647639  
C266     C      0.670350000000     0.951370000000     0.525630000000    -0.0581805  
C267     C      0.757570000000     0.985190000000     0.513410000000    -0.050352   
C268     C      0.634020000000     0.968590000000     0.534200000000     0.118616   
C269     C      0.640410000000     0.003180000000     0.477080000000    -0.00147458 
C270     C      0.773980000000     0.921860000000     0.479780000000    -0.0526097  
C271     C      0.158880000000     0.042700000000     0.475410000000    -0.0305309  
C272     C      0.342850000000     0.983380000000     0.512340000000    -0.0300446  
C273     C      0.383540000000     0.001220000000     0.448980000000    -0.0080912  
C274     C      0.378000000000     0.964100000000     0.504190000000    -0.00634767 
C275     C      0.282090000000     0.037970000000     0.503320000000    -0.0542058  
C276     C      0.224700000000     0.995920000000     0.480760000000    -0.0551672  
C277     C      0.289130000000     0.006490000000     0.485100000000     0.0631921  
C278     C      0.347800000000     0.018690000000     0.459110000000    -0.0296404  
C279     C      0.217580000000     0.027510000000     0.498790000000     0.0642813  
C280     C      0.164590000000     0.014580000000     0.533390000000    -0.0591144  
C281     C      0.246540000000     0.048380000000     0.509900000000    -0.0505912  
C282     C      0.127320000000     0.028110000000     0.544530000000     0.119225   
C283     C      0.121820000000     0.057330000000     0.485250000000    -0.000697833
C284     C      0.260190000000     0.985710000000     0.473910000000    -0.0519973  
C285     C      0.995770000000     0.819940000000     0.979270000000    -0.0247364  
C286     C      0.016750000000     0.644750000000     0.058420000000    -0.0194516  
C287     C      0.022730000000     0.599460000000     0.997970000000    -0.0301656  
C288     C      0.010390000000     0.605200000000     0.061130000000    -0.0286807  
C289     C      0.974960000000     0.711960000000     0.012600000000    -0.0505537  
C290     C      0.038270000000     0.750740000000     0.022040000000    -0.0511933  
C291     C      0.007400000000     0.694460000000     0.019690000000     0.0630374  
C292     C      0.028830000000     0.639140000000     0.995740000000    -0.0174253  
C293     C      0.005740000000     0.768250000000     0.015300000000     0.065167   
C294     C      0.983530000000     0.821500000000     0.042750000000    -0.0560014  
C295     C      0.974010000000     0.748530000000     0.010370000000    -0.0553578  
C296     C      0.988990000000     0.861350000000     0.043750000000     0.10996    
C297     C      0.001620000000     0.859710000000     0.978480000000    -0.0164314  
C298     C      0.039230000000     0.714140000000     0.024200000000    -0.0544435  
C299     C      0.944030000000     0.180630000000     0.029530000000    -0.0261502  
C300     C      0.006450000000     0.359360000000     0.066810000000    -0.0224693  
C301     C      0.973810000000     0.401500000000     0.012430000000    -0.018606   
C302     C      0.018760000000     0.396800000000     0.058840000000    -0.020801   
C303     C      0.000380000000     0.281290000000     0.020700000000    -0.0526031  
C304     C      0.949160000000     0.260930000000     0.070900000000    -0.0508357  
C305     C      0.981980000000     0.306960000000     0.040070000000     0.0639288  
C306     C      0.961070000000     0.364000000000     0.020110000000    -0.0230776  
C307     C      0.968050000000     0.235260000000     0.052010000000     0.0650285  
C308     C      0.993460000000     0.180250000000     0.072510000000    -0.055599   
C309     C      0.993460000000     0.245710000000     0.026420000000    -0.0537449  
C310     C      0.983450000000     0.143090000000     0.084550000000     0.10769    
C311     C      0.932340000000     0.143810000000     0.040850000000    -0.0167958  
C312     C      0.955880000000     0.296510000000     0.064990000000    -0.0548229  
C313     C      0.859560000000     0.961020000000     0.951010000000    -0.0287399  
C314     C      0.674360000000     0.983320000000     0.015150000000    -0.0305376  
C315     C      0.633870000000     0.005060000000     0.952840000000    -0.00652135 
C316     C      0.638850000000     0.003090000000     0.019850000000    -0.00502974 
C317     C      0.756740000000     0.006620000000     0.982190000000    -0.0519211  
C318     C      0.772970000000     0.935170000000     0.976950000000    -0.0498973  
C319     C      0.728630000000     0.982200000000     0.980000000000     0.0637948  
C320     C      0.669990000000     0.985560000000     0.951350000000    -0.029894   
C321     C      0.801100000000     0.959610000000     0.979450000000     0.0644591  
C322     C      0.854730000000     0.953970000000     0.015210000000    -0.0589646  
C323     C      0.792670000000     0.995560000000     0.982000000000    -0.0543062  
C324     C      0.892580000000     0.937780000000     0.017010000000     0.119938   
C325     C      0.897290000000     0.944720000000     0.951180000000    -0.00335698 
C326     C      0.736980000000     0.946250000000     0.977290000000    -0.0545279  
C327     C      0.160060000000     0.050870000000     0.980370000000    -0.0296115  
C328     C      0.345770000000     0.023360000000     0.042060000000    -0.0286987  
C329     C      0.376840000000     0.007410000000     0.973130000000    -0.00741404 
C330     C      0.382180000000     0.004460000000     0.040040000000    -0.00903858 
C331     C      0.259320000000     0.001110000000     0.012720000000    -0.0517801  
C332     C      0.241770000000     0.072320000000     0.017350000000    -0.0511784  
C333     C      0.286950000000     0.026090000000     0.014040000000     0.0630886  
C334     C      0.340950000000     0.026390000000     0.978290000000    -0.0294535  
C335     C      0.214110000000     0.047330000000     0.015530000000     0.0644518  
C336     C      0.156020000000     0.045660000000     0.044780000000    -0.058713   
C337     C      0.223210000000     0.011500000000     0.013420000000    -0.0552066  
C338     C      0.117590000000     0.060670000000     0.044520000000     0.118574   
C339     C      0.122220000000     0.066710000000     0.978580000000    -0.00183598 
C340     C      0.277960000000     0.061900000000     0.016580000000    -0.0545405  
C341     C      0.979440000000     0.921180000000     0.832310000000    -0.0259719  
C342     C      0.040450000000     0.994190000000     0.662680000000    -0.0264969  
C343     C      0.018820000000     0.939910000000     0.612910000000    -0.0253653  
C344     C      0.056560000000     0.992840000000     0.625490000000    -0.0189194  
C345     C      0.039680000000     0.939460000000     0.735160000000    -0.0519165  
C346     C      0.977590000000     0.974640000000     0.757710000000    -0.0511056  
C347     C      0.018750000000     0.957880000000     0.710570000000     0.062766   
C348     C      0.003420000000     0.942220000000     0.650330000000    -0.0250736  
C349     C      0.998550000000     0.956280000000     0.782290000000     0.0653119  
C350     C      0.014080000000     0.975200000000     0.841420000000    -0.0590352  
C351     C      0.029800000000     0.938640000000     0.770760000000    -0.0561981  
C352     C      0.998990000000     0.979120000000     0.878900000000     0.11245    
C353     C      0.963420000000     0.923760000000     0.869490000000    -0.0162861  
C354     C      0.987520000000     0.975540000000     0.722130000000    -0.0538019  
C355     C      0.014260000000     0.054490000000     0.353240000000    -0.0245319  
C356     C      0.003550000000     0.033100000000     0.160100000000    -0.0263913  
C357     C      0.061800000000     0.078890000000     0.136810000000    -0.0250315  
C358     C      0.006080000000     0.044990000000     0.121560000000    -0.0178751  
C359     C      0.994490000000     0.074580000000     0.241230000000    -0.0512338  
C360     C      0.024010000000     0.014170000000     0.271570000000    -0.0497543  
C361     C      0.014740000000     0.051550000000     0.220300000000     0.0658078  
C362     C      0.058280000000     0.066180000000     0.174960000000    -0.0232899  
C363     C      0.003690000000     0.037130000000     0.292470000000     0.0645995  
C364     C      0.959670000000     0.021920000000     0.337280000000    -0.0566577  
C365     C      0.988940000000     0.067530000000     0.277040000000    -0.053374   
C366     C      0.956150000000     0.007450000000     0.374860000000     0.107936   
C367     C      0.012150000000     0.041050000000     0.391310000000    -0.0205456  
C368     C      0.029590000000     0.021220000000     0.235800000000    -0.0548639  
Cu1      Cu     0.005200000000     0.999130000000     0.030430000000     0.844014   
Cu2      Cu     0.009780000000     0.005540000000     0.965460000000     0.866108   
Cu3      Cu     0.006920000000     0.001300000000     0.468540000000     0.867184   
Cu4      Cu     0.012500000000     0.972620000000     0.527000000000     0.861955   
Cu5      Cu     0.000250000000     0.465200000000     0.039500000000     1.19347    
Cu6      Cu     0.019360000000     0.537490000000     0.035940000000     1.18259    
Cu7      Cu     0.025290000000     0.450690000000     0.535700000000     1.2058     
Cu8      Cu     0.014580000000     0.523600000000     0.541240000000     1.19762    
Cu9      Cu     0.505010000000     0.008140000000     0.963890000000     0.879089   
Cu10     Cu     0.510740000000     0.003470000000     0.028630000000     0.867395   
Cu11     Cu     0.512120000000     0.001850000000     0.463440000000     0.84172    
Cu12     Cu     0.506080000000     0.966820000000     0.518270000000     0.856553   
Cu13     Cu     0.546540000000     0.508760000000     0.975820000000     1.23262    
Cu14     Cu     0.470000000000     0.505070000000     0.973310000000     1.19998    
Cu15     Cu     0.518770000000     0.457510000000     0.470710000000     1.20586    
Cu16     Cu     0.529550000000     0.530970000000     0.476880000000     1.2162     
H1       H      0.551070000000     0.439080000000     0.689870000000     0.0439415  
H2       H      0.567390000000     0.496690000000     0.801570000000     0.0410382  
H3       H      0.460020000000     0.458020000000     0.805060000000     0.0597429  
H4       H      0.502760000000     0.535650000000     0.598840000000     0.0402953  
H5       H      0.562500000000     0.463170000000     0.855630000000     0.0594268  
H6       H      0.489750000000     0.432430000000     0.642740000000     0.0379481  
H7       H      0.538020000000     0.532820000000     0.652090000000     0.0381237  
H8       H      0.504050000000     0.432510000000     0.577250000000     0.0388204  
H9       H      0.456950000000     0.472540000000     0.869980000000     0.0260648  
H10      H      0.551400000000     0.434570000000     0.754270000000     0.053866   
H11      H      0.565550000000     0.508940000000     0.866330000000     0.0570777  
H12      H      0.474440000000     0.524040000000     0.696300000000     0.0459639  
H13      H      0.530980000000     0.525570000000     0.813950000000     0.0421145  
H14      H      0.549530000000     0.533690000000     0.586810000000     0.0548052  
H15      H      0.536700000000     0.438550000000     0.631540000000     0.0387226  
H16      H      0.564030000000     0.495900000000     0.636740000000     0.0422131  
H17      H      0.477300000000     0.521630000000     0.760650000000     0.0427266  
H18      H      0.468850000000     0.503070000000     0.816310000000     0.0438683  
H19      H      0.469670000000     0.462550000000     0.590910000000     0.0370458  
H20      H      0.470450000000     0.560500000000     0.262290000000     0.0477115  
H21      H      0.561250000000     0.549080000000     0.144760000000     0.0389331  
H22      H      0.453690000000     0.510800000000     0.148050000000     0.0577716  
H23      H      0.472230000000     0.481300000000     0.354710000000     0.0380029  
H24      H      0.531700000000     0.573340000000     0.093500000000     0.0502755  
H25      H      0.537280000000     0.562900000000     0.304230000000     0.038548   
H26      H      0.490380000000     0.461720000000     0.297580000000     0.036278   
H27      H      0.552200000000     0.552020000000     0.368230000000     0.0464481  
H28      H      0.454560000000     0.502470000000     0.082370000000     0.0246014  
H29      H      0.470210000000     0.569520000000     0.198020000000     0.056677   
H30      H      0.562890000000     0.540470000000     0.079100000000     0.0422506  
H31      H      0.548720000000     0.477580000000     0.249790000000     0.0426008  
H32      H      0.551850000000     0.504730000000     0.130630000000     0.0381039  
H33      H      0.508130000000     0.450620000000     0.361400000000     0.0409636  
H34      H      0.564150000000     0.524180000000     0.311590000000     0.0446675  
H35      H      0.537710000000     0.466710000000     0.307740000000     0.0391348  
H36      H      0.546070000000     0.484440000000     0.186150000000     0.0421937  
H37      H      0.489510000000     0.482810000000     0.132840000000     0.0452275  
H38      H      0.505010000000     0.556450000000     0.358700000000     0.0404604  
H39      H      0.569550000000     0.751720000000     0.567350000000     0.0427716  
H40      H      0.493290000000     0.646720000000     0.526340000000     0.0348667  
H41      H      0.599910000000     0.643030000000     0.485570000000     0.0580219  
H42      H      0.505140000000     0.857320000000     0.513910000000     0.0497896  
H43      H      0.517040000000     0.587310000000     0.534640000000     0.0513966  
H44      H      0.603910000000     0.804330000000     0.500980000000     0.0361925  
H45      H      0.495260000000     0.798360000000     0.536620000000     0.0350955  
H46      H      0.608030000000     0.866130000000     0.526930000000     0.0362891  
H47      H      0.587620000000     0.582520000000     0.462170000000     0.0256892  
H48      H      0.568690000000     0.687440000000     0.563040000000     0.0522115  
H49      H      0.481750000000     0.586750000000     0.502370000000     0.032361   
H50      H      0.530650000000     0.759310000000     0.460360000000     0.0465658  
H51      H      0.498580000000     0.643810000000     0.479050000000     0.0363132  
H52      H      0.501110000000     0.860220000000     0.561300000000     0.0333417  
H53      H      0.595660000000     0.806730000000     0.547880000000     0.0379995  
H54      H      0.530390000000     0.803350000000     0.569270000000     0.0368272  
H55      H      0.529750000000     0.695090000000     0.456050000000     0.0427354  
H56      H      0.563130000000     0.641080000000     0.454540000000     0.0449149  
H57      H      0.576410000000     0.861570000000     0.490960000000     0.0439778  
H58      H      0.468770000000     0.305350000000     0.430170000000     0.0430742  
H59      H      0.535120000000     0.189250000000     0.401600000000     0.0368214  
H60      H      0.465710000000     0.181860000000     0.490740000000     0.0595184  
H61      H      0.566510000000     0.392170000000     0.463380000000     0.039351   
H62      H      0.498120000000     0.137210000000     0.393390000000     0.0492966  
H63      H      0.486970000000     0.338670000000     0.514750000000     0.0354739  
H64      H      0.555840000000     0.340920000000     0.425360000000     0.0348018  
H65      H      0.478530000000     0.403830000000     0.509570000000     0.0344461  
H66      H      0.476670000000     0.115380000000     0.491390000000     0.0306298  
H67      H      0.459530000000     0.242420000000     0.419840000000     0.0527589  
H68      H      0.543370000000     0.122850000000     0.403270000000     0.0346149  
H69      H      0.560000000000     0.281940000000     0.496800000000     0.0467968  
H70      H      0.553560000000     0.172700000000     0.442440000000     0.0389524  
H71      H      0.547960000000     0.406050000000     0.421640000000     0.0347307  
H72      H      0.467020000000     0.351930000000     0.473350000000     0.0383444  
H73      H      0.509400000000     0.353630000000     0.418510000000     0.0377918  
H74      H      0.550720000000     0.219000000000     0.486500000000     0.0439742  
H75      H      0.512000000000     0.168490000000     0.495660000000     0.046554   
H76      H      0.525050000000     0.391650000000     0.516350000000     0.0362114  
H77      H      0.464410000000     0.716910000000     0.003100000000     0.0448549  
H78      H      0.484030000000     0.836550000000     0.927590000000     0.0359579  
H79      H      0.522190000000     0.823700000000     0.032350000000     0.0615615  
H80      H      0.548700000000     0.630500000000     0.928740000000     0.0502206  
H81      H      0.522670000000     0.885990000000     0.937320000000     0.0482053  
H82      H      0.445750000000     0.675740000000     0.941430000000     0.0369909  
H83      H      0.556840000000     0.679520000000     0.968700000000     0.0399951  
H84      H      0.446420000000     0.609710000000     0.948690000000     0.0407     
H85      H      0.509300000000     0.889170000000     0.043110000000     0.0383264  
H86      H      0.466450000000     0.779780000000     0.013820000000     0.0445919  
H87      H      0.476700000000     0.900880000000     0.937820000000     0.0382621  
H88      H      0.538430000000     0.729040000000     0.915970000000     0.0481661  
H89      H      0.455820000000     0.846610000000     0.964990000000     0.0405473  
H90      H      0.559260000000     0.614950000000     0.972320000000     0.0508714  
H91      H      0.460160000000     0.660590000000     0.984380000000     0.0422913  
H92      H      0.524430000000     0.662310000000     0.999740000000     0.0445512  
H93      H      0.542970000000     0.791930000000     0.928800000000     0.0505174  
H94      H      0.477030000000     0.838670000000     0.023830000000     0.0473025  
H95      H      0.472670000000     0.625840000000     0.912410000000     0.0383849  
H96      H      0.567240000000     0.225770000000     0.965360000000     0.0502214  
H97      H      0.459990000000     0.330680000000     0.979910000000     0.0410059  
H98      H      0.569570000000     0.339620000000     0.011080000000     0.0568962  
H99      H      0.559920000000     0.124760000000     0.034520000000     0.0401464  
H100     H      0.479210000000     0.381580000000     0.948700000000     0.0632993  
H101     H      0.504640000000     0.184330000000     0.951580000000     0.0407579  
H102     H      0.537740000000     0.178520000000     0.058570000000     0.0361646  
H103     H      0.491950000000     0.120090000000     0.951460000000     0.0509077  
H104     H      0.563900000000     0.405260000000     0.011200000000     0.0230316  
H105     H      0.561740000000     0.289520000000     0.958450000000     0.0616858  
H106     H      0.453520000000     0.396940000000     0.985560000000     0.0447168  
H107     H      0.481180000000     0.227330000000     0.042120000000     0.0418222  
H108     H      0.471810000000     0.349090000000     0.022300000000     0.0365753  
H109     H      0.520270000000     0.113690000000     0.059050000000     0.0412576  
H110     H      0.473380000000     0.171150000000     0.985520000000     0.0413229  
H111     H      0.491760000000     0.168650000000     0.046370000000     0.0374497  
H112     H      0.477910000000     0.290840000000     0.037550000000     0.0422883  
H113     H      0.533910000000     0.355440000000     0.038990000000     0.0448539  
H114     H      0.538860000000     0.131000000000     0.955800000000     0.0492522  
H115     H      0.492210000000     0.989930000000     0.702730000000     0.0448037  
H116     H      0.503670000000     0.933250000000     0.827620000000     0.037068   
H117     H      0.571250000000     0.022010000000     0.811390000000     0.0602074  
H118     H      0.533070000000     0.895310000000     0.617010000000     0.0420181  
H119     H      0.495770000000     0.971500000000     0.878470000000     0.0469908  
H120     H      0.574200000000     0.990640000000     0.656920000000     0.0458699  
H121     H      0.502300000000     0.905190000000     0.672990000000     0.0353986  
H122     H      0.557690000000     0.990370000000     0.591670000000     0.0607762  
H123     H      0.587950000000     0.020040000000     0.877020000000     0.0232278  
H124     H      0.490840000000     0.002810000000     0.766240000000     0.053886   
H125     H      0.521110000000     0.933690000000     0.892680000000     0.0405766  
H126     H      0.584890000000     0.923310000000     0.718290000000     0.0479052  
H127     H      0.551380000000     0.928560000000     0.836050000000     0.0380807  
H128     H      0.486790000000     0.906730000000     0.607340000000     0.0303412  
H129     H      0.526840000000     0.997620000000     0.648090000000     0.0434823  
H130     H      0.483570000000     0.946210000000     0.657790000000     0.0384324  
H131     H      0.583740000000     0.936430000000     0.781710000000     0.0430939  
H132     H      0.591770000000     0.981850000000     0.826230000000     0.0448822  
H133     H      0.580310000000     0.951140000000     0.606700000000     0.0539436  
H134     H      0.427390000000     0.022960000000     0.263180000000     0.0437652  
H135     H      0.510750000000     0.047640000000     0.155340000000     0.0366363  
H136     H      0.489490000000     0.939380000000     0.172910000000     0.0593203  
H137     H      0.497290000000     0.065970000000     0.370550000000     0.0405325  
H138     H      0.492500000000     0.022900000000     0.098940000000     0.0445135  
H139     H      0.467300000000     0.968710000000     0.326040000000     0.0382576  
H140     H      0.486490000000     0.077220000000     0.308110000000     0.0356586  
H141     H      0.437660000000     0.984230000000     0.384740000000     0.0416828  
H142     H      0.520310000000     0.925710000000     0.113820000000     0.0291001  
H143     H      0.435700000000     0.011020000000     0.200000000000     0.0527422  
H144     H      0.540260000000     0.031790000000     0.096610000000     0.0339276  
H145     H      0.540910000000     0.005300000000     0.280880000000     0.0466553  
H146     H      0.548600000000     0.018020000000     0.158870000000     0.0373272  
H147     H      0.455930000000     0.090810000000     0.366970000000     0.0509393  
H148     H      0.428690000000     0.997360000000     0.322210000000     0.0392741  
H149     H      0.440250000000     0.062670000000     0.311300000000     0.0398587  
H150     H      0.549190000000     0.993240000000     0.217730000000     0.0431319  
H151     H      0.535720000000     0.953360000000     0.169330000000     0.0463044  
H152     H      0.485070000000     0.994930000000     0.382090000000     0.0417582  
H153     H      0.827030000000     0.469530000000     0.476150000000     0.0538498  
H154     H      0.692000000000     0.416180000000     0.485010000000     0.0390188  
H155     H      0.706610000000     0.526600000000     0.485350000000     0.0624168  
H156     H      0.894260000000     0.429130000000     0.583940000000     0.035828   
H157     H      0.651230000000     0.439300000000     0.440860000000     0.0504694  
H158     H      0.840130000000     0.520790000000     0.553720000000     0.0391017  
H159     H      0.853330000000     0.411420000000     0.537020000000     0.0391702  
H160     H      0.906090000000     0.527830000000     0.563470000000     0.0404307  
H161     H      0.640330000000     0.535320000000     0.477530000000     0.0422766  
H162     H      0.766650000000     0.471150000000     0.449610000000     0.057805   
H163     H      0.625220000000     0.424020000000     0.477700000000     0.0381208  
H164     H      0.779300000000     0.461150000000     0.579620000000     0.0471607  
H165     H      0.671240000000     0.441820000000     0.519510000000     0.0394233  
H166     H      0.920050000000     0.416980000000     0.545700000000     0.0427777  
H167     H      0.866350000000     0.506460000000     0.516220000000     0.0508883  
H168     H      0.874190000000     0.441300000000     0.506190000000     0.0502007  
H169     H      0.718960000000     0.463910000000     0.553200000000     0.04376    
H170     H      0.679720000000     0.506610000000     0.519390000000     0.0522429  
H171     H      0.885230000000     0.499050000000     0.594990000000     0.0360433  
H172     H      0.320320000000     0.516470000000     0.541570000000     0.0430784  
H173     H      0.186730000000     0.566430000000     0.515160000000     0.0378169  
H174     H      0.203200000000     0.456430000000     0.518730000000     0.0587314  
H175     H      0.400280000000     0.549570000000     0.439170000000     0.0374383  
H176     H      0.142360000000     0.545470000000     0.556390000000     0.0478944  
H177     H      0.341150000000     0.459570000000     0.471620000000     0.0369997  
H178     H      0.354850000000     0.569690000000     0.480340000000     0.036077   
H179     H      0.407740000000     0.451130000000     0.469620000000     0.0421152  
H180     H      0.136080000000     0.447080000000     0.520490000000     0.0242333  
H181     H      0.257170000000     0.515390000000     0.560970000000     0.054444   
H182     H      0.119340000000     0.556990000000     0.516440000000     0.0392251  
H183     H      0.285440000000     0.518330000000     0.432980000000     0.04592    
H184     H      0.169670000000     0.539080000000     0.480090000000     0.0372259  
H185     H      0.422210000000     0.562160000000     0.479480000000     0.0378074  
H186     H      0.363970000000     0.477270000000     0.509760000000     0.0399221  
H187     H      0.371830000000     0.541730000000     0.514990000000     0.0381579  
H188     H      0.222290000000     0.516590000000     0.452390000000     0.041793   
H189     H      0.178880000000     0.475690000000     0.482550000000     0.043694   
H190     H      0.390330000000     0.475440000000     0.432790000000     0.0375795  
H191     H      0.783320000000     0.519040000000     0.905470000000     0.0445302  
H192     H      0.667460000000     0.458020000000     0.949560000000     0.0421372  
H193     H      0.667220000000     0.567610000000     0.969190000000     0.0562213  
H194     H      0.886730000000     0.475090000000     0.983260000000     0.0461316  
H195     H      0.609370000000     0.481740000000     0.930020000000     0.0604912  
H196     H      0.828010000000     0.568560000000     0.966920000000     0.0377367  
H197     H      0.829270000000     0.457430000000     0.957520000000     0.0363629  
H198     H      0.894070000000     0.569840000000     0.947820000000     0.0513495  
H199     H      0.602130000000     0.563610000000     0.987220000000     0.0183848  
H200     H      0.717090000000     0.519460000000     0.903190000000     0.0538538  
H201     H      0.602870000000     0.454960000000     0.968430000000     0.0515098  
H202     H      0.779200000000     0.505660000000     0.018420000000     0.0468809  
H203     H      0.659980000000     0.472730000000     0.994280000000     0.0384496  
H204     H      0.895360000000     0.460750000000     0.938630000000     0.041106   
H205     H      0.836500000000     0.549890000000     0.923910000000     0.0416488  
H206     H      0.837150000000     0.483180000000     0.918270000000     0.0401833  
H207     H      0.712970000000     0.505510000000     0.016080000000     0.0429412  
H208     H      0.659150000000     0.538520000000     0.005820000000     0.0433578  
H209     H      0.885790000000     0.548170000000     0.989400000000     0.0416972  
H210     H      0.301260000000     0.478550000000     0.987850000000     0.0443983  
H211     H      0.193660000000     0.561130000000     0.013090000000     0.0381534  
H212     H      0.186460000000     0.510760000000     0.913140000000     0.0580296  
H213     H      0.410920000000     0.558250000000     0.982260000000     0.0449127  
H214     H      0.133250000000     0.536590000000     0.008410000000     0.0614855  
H215     H      0.351430000000     0.499540000000     0.912850000000     0.0361627  
H216     H      0.351860000000     0.552630000000     0.011160000000     0.0393085  
H217     H      0.414200000000     0.478190000000     0.924840000000     0.0421958  
H218     H      0.122630000000     0.536110000000     0.906440000000     0.0173224  
H219     H      0.235060000000     0.481740000000     0.988830000000     0.0533345  
H220     H      0.129360000000     0.583620000000     0.005100000000     0.038977   
H221     H      0.305560000000     0.578540000000     0.934850000000     0.0461931  
H222     H      0.187180000000     0.588080000000     0.974430000000     0.0373744  
H223     H      0.414770000000     0.532290000000     0.021750000000     0.0512436  
H224     H      0.354940000000     0.473100000000     0.952250000000     0.0397083  
H225     H      0.355600000000     0.505400000000     0.011990000000     0.040186   
H226     H      0.239400000000     0.581770000000     0.935900000000     0.0422672  
H227     H      0.183140000000     0.557810000000     0.914650000000     0.0434781  
H228     H      0.411470000000     0.525380000000     0.923100000000     0.0381204  
H229     H      0.982190000000     0.485880000000     0.745530000000     0.0436346  
H230     H      0.011220000000     0.433330000000     0.867170000000     0.0390746  
H231     H      0.036570000000     0.541510000000     0.860990000000     0.0594722  
H232     H      0.077040000000     0.442420000000     0.657950000000     0.0480711  
H233     H      0.978460000000     0.458430000000     0.915430000000     0.0461677  
H234     H      0.048170000000     0.535950000000     0.711140000000     0.0376773  
H235     H      0.042020000000     0.424860000000     0.709070000000     0.0382804  
H236     H      0.040630000000     0.538270000000     0.645750000000     0.039867   
H237     H      0.042460000000     0.543170000000     0.927740000000     0.0310861  
H238     H      0.970860000000     0.489980000000     0.809210000000     0.0529041  
H239     H      0.016700000000     0.436040000000     0.933560000000     0.0420365  
H240     H      0.096110000000     0.474060000000     0.765680000000     0.0491722  
H241     H      0.054010000000     0.449430000000     0.883000000000     0.049178   
H242     H      0.034080000000     0.426020000000     0.643320000000     0.0410954  
H243     H      0.007120000000     0.515440000000     0.695940000000     0.0394069  
H244     H      0.003450000000     0.450090000000     0.694970000000     0.039009   
H245     H      0.084590000000     0.477060000000     0.829490000000     0.0466976  
H246     H      0.068050000000     0.511010000000     0.879780000000     0.0534836  
H247     H      0.081170000000     0.516590000000     0.659590000000     0.0437723  
H248     H      0.984990000000     0.448920000000     0.252370000000     0.0423229  
H249     H      0.029490000000     0.455100000000     0.360090000000     0.0354456  
H250     H      0.956420000000     0.539990000000     0.374490000000     0.0599849  
H251     H      0.993220000000     0.560520000000     0.160950000000     0.0382262  
H252     H      0.994860000000     0.442430000000     0.412900000000     0.0509069  
H253     H      0.945750000000     0.470600000000     0.205530000000     0.037565   
H254     H      0.029570000000     0.546590000000     0.212600000000     0.0349238  
H255     H      0.955720000000     0.466200000000     0.140250000000     0.0428044  
H256     H      0.973850000000     0.541510000000     0.439450000000     0.0275146  
H257     H      0.983970000000     0.444170000000     0.315900000000     0.0479234  
H258     H      0.040710000000     0.452680000000     0.424470000000     0.0369084  
H259     H      0.990770000000     0.561930000000     0.261130000000     0.0453694  
H260     H      0.044890000000     0.496530000000     0.377000000000     0.0391422  
H261     H      0.037060000000     0.545270000000     0.147390000000     0.0382913  
H262     H      0.991450000000     0.458900000000     0.193220000000     0.0392539  
H263     H      0.039390000000     0.503150000000     0.196800000000     0.0406664  
H264     H      0.994910000000     0.556720000000     0.324710000000     0.0428206  
H265     H      0.003780000000     0.545210000000     0.383900000000     0.0434993  
H266     H      0.938620000000     0.507640000000     0.154950000000     0.0376704  
H267     H      0.014340000000     0.686320000000     0.517920000000     0.0436816  
H268     H      0.923100000000     0.788100000000     0.541870000000     0.0380982  
H269     H      0.022310000000     0.796440000000     0.597760000000     0.0575566  
H270     H      0.956060000000     0.575320000000     0.563870000000     0.0395065  
H271     H      0.945230000000     0.847310000000     0.532150000000     0.0561971  
H272     H      0.038030000000     0.640030000000     0.595030000000     0.0348238  
H273     H      0.940870000000     0.631920000000     0.536400000000     0.0359459  
H274     H      0.055740000000     0.579850000000     0.574580000000     0.0349225  
H275     H      0.004280000000     0.858590000000     0.616270000000     0.0171654  
H276     H      0.007750000000     0.750370000000     0.518730000000     0.0548453  
H277     H      0.907120000000     0.850250000000     0.561630000000     0.0335062  
H278     H      0.955200000000     0.679310000000     0.615720000000     0.0460794  
H279     H      0.921610000000     0.794260000000     0.589100000000     0.0368983  
H280     H      0.959230000000     0.571800000000     0.516490000000     0.0399738  
H281     H      0.042250000000     0.636940000000     0.547630000000     0.0384859  
H282     H      0.982480000000     0.631870000000     0.511560000000     0.0394184  
H283     H      0.948820000000     0.743430000000     0.616620000000     0.042408   
H284     H      0.980770000000     0.799510000000     0.622200000000     0.0432113  
H285     H      0.013700000000     0.580030000000     0.598560000000     0.0377659  
H286     H      0.004300000000     0.300850000000     0.483410000000     0.0444236  
H287     H      0.085000000000     0.193620000000     0.450580000000     0.038126   
H288     H      0.006320000000     0.173020000000     0.529690000000     0.060374   
H289     H      0.086350000000     0.394420000000     0.533100000000     0.044814   
H290     H      0.052810000000     0.141180000000     0.432070000000     0.0527861  
H291     H      0.012110000000     0.326350000000     0.573270000000     0.0365486  
H292     H      0.088070000000     0.344570000000     0.491610000000     0.0361093  
H293     H      0.994650000000     0.390050000000     0.571500000000     0.0332009  
H294     H      0.020130000000     0.107460000000     0.523580000000     0.0304939  
H295     H      0.002360000000     0.239100000000     0.465640000000     0.0546952  
H296     H      0.097170000000     0.127790000000     0.446200000000     0.034285   
H297     H      0.090860000000     0.277790000000     0.555960000000     0.0492225  
H298     H      0.099390000000     0.173370000000     0.491300000000     0.0413863  
H299     H      0.069960000000     0.407970000000     0.490410000000     0.0350874  
H300     H      0.993350000000     0.339860000000     0.531460000000     0.0400587  
H301     H      0.041410000000     0.351410000000     0.479790000000     0.0390322  
H302     H      0.088640000000     0.215760000000     0.538250000000     0.047016   
H303     H      0.052510000000     0.160960000000     0.538070000000     0.0516625  
H304     H      0.041880000000     0.383810000000     0.580940000000     0.0402955  
H305     H      0.780120000000     0.897460000000     0.466430000000     0.0470328  
H306     H      0.694230000000     0.001930000000     0.455580000000     0.0387208  
H307     H      0.684080000000     0.944060000000     0.550710000000     0.058123   
H308     H      0.890570000000     0.917460000000     0.435900000000     0.0470131  
H309     H      0.646060000000     0.029620000000     0.488160000000     0.0533197  
H310     H      0.846540000000     0.910600000000     0.535800000000     0.0370854  
H311     H      0.839680000000     0.958060000000     0.434560000000     0.0394628  
H312     H      0.913890000000     0.914490000000     0.534110000000     0.0477183  
H313     H      0.616500000000     0.948320000000     0.546510000000     0.0269928  
H314     H      0.716840000000     0.915040000000     0.474280000000     0.0421412  
H315     H      0.627100000000     0.006960000000     0.451050000000     0.0425006  
H316     H      0.814610000000     0.992720000000     0.517750000000     0.0460372  
H317     H      0.671460000000     0.960110000000     0.455210000000     0.0384227  
H318     H      0.906570000000     0.961650000000     0.430840000000     0.0573448  
H319     H      0.862730000000     0.955040000000     0.531550000000     0.0424892  
H320     H      0.858720000000     0.983810000000     0.469950000000     0.0443997  
H321     H      0.751450000000     0.009900000000     0.526180000000     0.0552141  
H322     H      0.665320000000     0.926780000000     0.510530000000     0.0426494  
H323     H      0.895350000000     0.888450000000     0.498910000000     0.0394545  
H324     H      0.265230000000     0.961220000000     0.460290000000     0.0474764  
H325     H      0.172130000000     0.061340000000     0.456870000000     0.0387217  
H326     H      0.182050000000     0.012420000000     0.557210000000     0.0591746  
H327     H      0.378000000000     0.980510000000     0.429040000000     0.0392212  
H328     H      0.125470000000     0.084370000000     0.495620000000     0.056377   
H329     H      0.325000000000     0.965330000000     0.527480000000     0.037222   
H330     H      0.333650000000     0.026730000000     0.434490000000     0.0411561  
H331     H      0.391770000000     0.958130000000     0.529560000000     0.0433348  
H332     H      0.114900000000     0.008130000000     0.562090000000     0.0303312  
H333     H      0.202910000000     0.978980000000     0.472360000000     0.0445334  
H334     H      0.105080000000     0.059180000000     0.460990000000     0.0461791  
H335     H      0.303990000000     0.054210000000     0.512780000000     0.046804   
H336     H      0.154990000000     0.017260000000     0.461520000000     0.0411751  
H337     H      0.401110000000     0.021250000000     0.436390000000     0.0552269  
H338     H      0.348720000000     0.006640000000     0.529200000000     0.0422308  
H339     H      0.353610000000     0.042700000000     0.474850000000     0.0473109  
H340     H      0.241490000000     0.072520000000     0.524120000000     0.0547913  
H341     H      0.161350000000     0.987770000000     0.522140000000     0.0482566  
H342     H      0.371360000000     0.938710000000     0.491280000000     0.0385735  
H343     H      0.064640000000     0.701260000000     0.029680000000     0.0435622  
H344     H      0.012950000000     0.807800000000     0.958500000000     0.0375921  
H345     H      0.991270000000     0.810190000000     0.068760000000     0.0612952  
H346     H      0.994490000000     0.593140000000     0.990380000000     0.0526433  
H347     H      0.031000000000     0.865500000000     0.979150000000     0.0539919  
H348     H      0.999630000000     0.658100000000     0.078480000000     0.0357221  
H349     H      0.020630000000     0.648240000000     0.969000000000     0.0391035  
H350     H      0.019750000000     0.596420000000     0.087500000000     0.0384818  
H351     H      0.968810000000     0.873370000000     0.061720000000     0.0383305  
H352     H      0.062880000000     0.765580000000     0.025900000000     0.0540717  
H353     H      0.990140000000     0.870950000000     0.953880000000     0.0452583  
H354     H      0.950280000000     0.697150000000     0.009070000000     0.0490764  
H355     H      0.967010000000     0.814120000000     0.973050000000     0.0437695  
H356     H      0.041220000000     0.586670000000     0.978870000000     0.0494058  
H357     H      0.045570000000     0.650610000000     0.064390000000     0.0372594  
H358     H      0.058060000000     0.644930000000     0.999350000000     0.0372953  
H359     H      0.948550000000     0.761420000000     0.005120000000     0.0472941  
H360     H      0.954380000000     0.815840000000     0.038380000000     0.056229   
H361     H      0.981030000000     0.599700000000     0.059000000000     0.0428252  
H362     H      0.941140000000     0.315800000000     0.080190000000     0.0438478  
H363     H      0.919710000000     0.195280000000     0.020600000000     0.0389786  
H364     H      0.005680000000     0.194730000000     0.095050000000     0.0613711  
H365     H      0.994600000000     0.401050000000     0.991260000000     0.0409278  
H366     H      0.909500000000     0.145680000000     0.059770000000     0.0563004  
H367     H      0.030200000000     0.343980000000     0.075960000000     0.0373035  
H368     H      0.951550000000     0.351990000000     0.995020000000     0.0351032  
H369     H      0.028340000000     0.409140000000     0.083680000000     0.0351107  
H370     H      0.008460000000     0.127730000000     0.089010000000     0.0306038  
H371     H      0.929390000000     0.253270000000     0.090500000000     0.0537379  
H372     H      0.923320000000     0.128560000000     0.017500000000     0.0391888  
H373     H      0.020440000000     0.288930000000     0.001390000000     0.0492909  
H374     H      0.963110000000     0.178560000000     0.006900000000     0.0413861  
H375     H      0.950570000000     0.417360000000     0.003090000000     0.0351748  
H376     H      0.986170000000     0.360070000000     0.088490000000     0.0388864  
H377     H      0.938010000000     0.364910000000     0.038940000000     0.0384255  
H378     H      0.008180000000     0.226400000000     0.011220000000     0.0461139  
H379     H      0.014180000000     0.178300000000     0.051310000000     0.0518653  
H380     H      0.041480000000     0.396290000000     0.039640000000     0.0431929  
H381     H      0.715730000000     0.926820000000     0.975940000000     0.0477468  
H382     H      0.846310000000     0.954580000000     0.925450000000     0.0418534  
H383     H      0.837850000000     0.942660000000     0.036690000000     0.0603995  
H384     H      0.638790000000     0.033380000000     0.947740000000     0.0429725  
H385     H      0.894740000000     0.916250000000     0.945400000000     0.0552198  
H386     H      0.691930000000     0.989170000000     0.038260000000     0.03958    
H387     H      0.684260000000     0.993330000000     0.926710000000     0.0383934  
H388     H      0.624740000000     0.992130000000     0.043290000000     0.0498989  
H389     H      0.905030000000     0.945620000000     0.042500000000     0.0330044  
H390     H      0.779010000000     0.907430000000     0.975210000000     0.0548843  
H391     H      0.913390000000     0.956570000000     0.929540000000     0.0579906  
H392     H      0.750720000000     0.034310000000     0.984590000000     0.0484807  
H393     H      0.862350000000     0.990040000000     0.952830000000     0.0458522  
H394     H      0.616410000000     0.994990000000     0.931260000000     0.0496527  
H395     H      0.668970000000     0.954570000000     0.014800000000     0.0484198  
H396     H      0.664800000000     0.956810000000     0.950200000000     0.0443081  
H397     H      0.813790000000     0.015020000000     0.984310000000     0.0451278  
H398     H      0.857090000000     0.982690000000     0.020050000000     0.0482953  
H399     H      0.644990000000     0.031070000000     0.025590000000     0.0400745  
H400     H      0.298840000000     0.081730000000     0.017410000000     0.0438852  
H401     H      0.176420000000     0.062050000000     0.958440000000     0.039521   
H402     H      0.169440000000     0.052940000000     0.070030000000     0.0588452  
H403     H      0.371280000000     0.979390000000     0.967060000000     0.0416583  
H404     H      0.124700000000     0.095760000000     0.978920000000     0.0563841  
H405     H      0.331810000000     0.014980000000     0.066680000000     0.0399731  
H406     H      0.323330000000     0.020470000000     0.955230000000     0.0377141  
H407     H      0.399590000000     0.014200000000     0.061860000000     0.053995   
H408     H      0.102160000000     0.047660000000     0.065960000000     0.0342816  
H409     H      0.235210000000     0.099950000000     0.018840000000     0.0535244  
H410     H      0.109620000000     0.059300000000     0.953040000000     0.0456976  
H411     H      0.265870000000     0.973510000000     0.010560000000     0.0486011  
H412     H      0.158000000000     0.022000000000     0.976360000000     0.0412168  
H413     H      0.390600000000     0.018960000000     0.949780000000     0.0461415  
H414     H      0.350450000000     0.052170000000     0.043580000000     0.0397022  
H415     H      0.345750000000     0.055230000000     0.978960000000     0.040427   
H416     H      0.202440000000     0.991610000000     0.011770000000     0.0449065  
H417     H      0.154110000000     0.016530000000     0.043830000000     0.0481718  
H418     H      0.377690000000     0.975960000000     0.044480000000     0.0515893  
H419     H      0.970960000000     0.990090000000     0.703720000000     0.0454496  
H420     H      0.959390000000     0.908120000000     0.814830000000     0.0376014  
H421     H      0.019880000000     0.001690000000     0.830450000000     0.0591316  
H422     H      0.041160000000     0.920470000000     0.612240000000     0.0509583  
H423     H      0.936000000000     0.935480000000     0.868090000000     0.0520948  
H424     H      0.061050000000     0.005270000000     0.680920000000     0.0409191  
H425     H      0.996910000000     0.915230000000     0.659540000000     0.038529   
H426     H      0.060470000000     0.019820000000     0.615130000000     0.053436   
H427     H      0.020610000000     0.988700000000     0.896750000000     0.00247189 
H428     H      0.953580000000     0.988450000000     0.766240000000     0.0549071  
H429     H      0.961190000000     0.897240000000     0.881400000000     0.0370343  
H430     H      0.063830000000     0.925860000000     0.726670000000     0.0474539  
H431     H      0.004180000000     0.904620000000     0.833250000000     0.0373127  
H432     H      0.997470000000     0.931520000000     0.594160000000     0.0402572  
H433     H      0.016610000000     0.011980000000     0.662580000000     0.0432148  
H434     H      0.977970000000     0.957740000000     0.649660000000     0.041089   
H435     H      0.046580000000     0.924440000000     0.789250000000     0.0431012  
H436     H      0.040020000000     0.960490000000     0.842680000000     0.0460317  
H437     H      0.083160000000     0.979370000000     0.626200000000     0.046471   
H438     H      0.045410000000     0.003030000000     0.220270000000     0.0462314  
H439     H      0.043140000000     0.058710000000     0.346380000000     0.0387178  
H440     H      0.948100000000     0.002620000000     0.318350000000     0.0599902  
H441     H      0.050150000000     0.105630000000     0.134350000000     0.0559583  
H442     H      0.030950000000     0.018610000000     0.394780000000     0.0469227  
H443     H      0.974580000000     0.029480000000     0.166920000000     0.0439739  
H444     H      0.069460000000     0.086720000000     0.192740000000     0.0399626  
H445     H      0.997860000000     0.023310000000     0.103720000000     0.0295693  
H446     H      0.927270000000     0.006880000000     0.382630000000     0.0235815  
H447     H      0.035450000000     0.990670000000     0.283090000000     0.0559325  
H448     H      0.020080000000     0.062150000000     0.409970000000     0.043301   
H449     H      0.982960000000     0.098020000000     0.229680000000     0.0574564  
H450     H      0.000000000000     0.080140000000     0.351380000000     0.0421708  
H451     H      0.090680000000     0.079860000000     0.129140000000     0.0522533  
H452     H      0.017470000000     0.007370000000     0.162940000000     0.0413347  
H453     H      0.074550000000     0.041850000000     0.178330000000     0.0398734  
H454     H      0.973090000000     0.085650000000     0.292630000000     0.046154   
H455     H      0.943680000000     0.046570000000     0.335160000000     0.0478597  
H456     H      0.987820000000     0.067650000000     0.117090000000     0.0611703  
N1       N      0.513480000000     0.485120000000     0.873930000000    -0.185537   
N2       N      0.515170000000     0.473390000000     0.800410000000    -0.10027    
N3       N      0.509290000000     0.484460000000     0.650100000000    -0.112332   
N4       N      0.518580000000     0.487180000000     0.576500000000    -0.17984    
N5       N      0.506330000000     0.526980000000     0.075490000000    -0.18915    
N6       N      0.506180000000     0.533730000000     0.149520000000    -0.100354   
N7       N      0.508820000000     0.514600000000     0.298960000000    -0.11193    
N8       N      0.521040000000     0.504720000000     0.371400000000    -0.179372   
N9       N      0.534220000000     0.580160000000     0.481330000000    -0.238027   
N10      N      0.547700000000     0.648620000000     0.508460000000    -0.10361    
N11      N      0.548780000000     0.798100000000     0.515900000000    -0.114175   
N12      N      0.553420000000     0.866350000000     0.541200000000    -0.0998923  
N13      N      0.505910000000     0.116790000000     0.444220000000    -0.105505   
N14      N      0.498370000000     0.189350000000     0.444930000000    -0.10246    
N15      N      0.522120000000     0.335100000000     0.470470000000    -0.115748   
N16      N      0.511740000000     0.408900000000     0.464610000000    -0.229517   
N17      N      0.503840000000     0.900620000000     0.987940000000    -0.172626   
N18      N      0.508620000000     0.828030000000     0.977830000000    -0.101152   
N19      N      0.502110000000     0.680940000000     0.951260000000    -0.112009   
N20      N      0.504250000000     0.607330000000     0.954930000000    -0.179313   
N21      N      0.510860000000     0.405580000000     0.988390000000    -0.186618   
N22      N      0.516380000000     0.332300000000     0.990650000000    -0.0989396  
N23      N      0.526400000000     0.183790000000     0.003750000000    -0.112098   
N24      N      0.515390000000     0.110980000000     0.002550000000    -0.16585    
N25      N      0.550910000000     0.980010000000     0.887560000000    -0.109864   
N26      N      0.535090000000     0.978650000000     0.815870000000    -0.102279   
N27      N      0.540320000000     0.946970000000     0.668760000000    -0.113731   
N28      N      0.524960000000     0.945890000000     0.597010000000    -0.111447   
N29      N      0.526220000000     0.978780000000     0.101300000000    -0.11932    
N30      N      0.496630000000     0.994610000000     0.166800000000    -0.102901   
N31      N      0.480030000000     0.021950000000     0.314040000000    -0.114587   
N32      N      0.449720000000     0.037630000000     0.379250000000    -0.0976282  
N33      N      0.628700000000     0.480210000000     0.471560000000    -0.186948   
N34      N      0.703470000000     0.470840000000     0.482700000000    -0.100142   
N35      N      0.842480000000     0.465380000000     0.546860000000    -0.112003   
N36      N      0.917400000000     0.472450000000     0.557470000000    -0.180923   
N37      N      0.123600000000     0.501720000000     0.527380000000    -0.188828   
N38      N      0.198610000000     0.512130000000     0.520820000000    -0.100618   
N39      N      0.344140000000     0.515340000000     0.473050000000    -0.112829   
N40      N      0.419610000000     0.506620000000     0.468970000000    -0.181823   
N41      N      0.597540000000     0.509310000000     0.977640000000    -0.238713   
N42      N      0.671260000000     0.513240000000     0.956770000000    -0.103438   
N43      N      0.825030000000     0.512720000000     0.964890000000    -0.114441   
N44      N      0.897620000000     0.515020000000     0.946830000000    -0.0896792  
N45      N      0.122370000000     0.556060000000     0.957780000000    -0.108465   
N46      N      0.193340000000     0.533080000000     0.964380000000    -0.102368   
N47      N      0.347360000000     0.528120000000     0.960910000000    -0.116323   
N48      N      0.418980000000     0.503480000000     0.974170000000    -0.224996   
N49      N      0.018830000000     0.492370000000     0.935240000000    -0.183523   
N50      N      0.018950000000     0.488280000000     0.861070000000    -0.0998903  
N51      N      0.048350000000     0.480140000000     0.713620000000    -0.111869   
N52      N      0.041770000000     0.481920000000     0.639400000000    -0.178578   
N53      N      0.001270000000     0.491890000000     0.437440000000    -0.189161   
N54      N      0.988750000000     0.494830000000     0.363930000000    -0.0999465  
N55      N      0.984730000000     0.511120000000     0.213050000000    -0.111269   
N56      N      0.993080000000     0.509610000000     0.138850000000    -0.181482   
N57      N      0.957720000000     0.857980000000     0.585060000000    -0.110641   
N58      N      0.974600000000     0.789340000000     0.566970000000    -0.101828   
N59      N      0.988100000000     0.640290000000     0.567240000000    -0.115761   
N60      N      0.009310000000     0.572680000000     0.543090000000    -0.229099   
N61      N      0.055030000000     0.115550000000     0.480980000000    -0.103885   
N62      N      0.043340000000     0.186960000000     0.488850000000    -0.101862   
N63      N      0.050440000000     0.330360000000     0.531600000000    -0.114271   
N64      N      0.029630000000     0.402070000000     0.529260000000    -0.230768   
N65      N      0.617310000000     0.983720000000     0.502150000000    -0.173931   
N66      N      0.692890000000     0.975790000000     0.505210000000    -0.1007     
N67      N      0.838850000000     0.933150000000     0.484890000000    -0.113208   
N68      N      0.914680000000     0.937900000000     0.482130000000    -0.163233   
N69      N      0.105340000000     0.035170000000     0.512810000000    -0.17252    
N70      N      0.181260000000     0.038340000000     0.507330000000    -0.100984   
N71      N      0.325340000000     0.993890000000     0.479180000000    -0.113011   
N72      N      0.400850000000     0.984830000000     0.480000000000    -0.165797   
N73      N      0.984300000000     0.875640000000     0.008690000000    -0.0950012  
N74      N      0.005680000000     0.806090000000     0.014320000000    -0.102195   
N75      N      0.006940000000     0.656740000000     0.022810000000    -0.115913   
N76      N      0.030370000000     0.586000000000     0.033620000000    -0.222181   
N77      N      0.962290000000     0.126030000000     0.057490000000    -0.103415   
N78      N      0.961050000000     0.198800000000     0.059600000000    -0.102009   
N79      N      0.991220000000     0.343350000000     0.034680000000    -0.115129   
N80      N      0.988590000000     0.417330000000     0.044660000000    -0.227901   
N81      N      0.913900000000     0.949470000000     0.986270000000    -0.170758   
N82      N      0.837910000000     0.947130000000     0.980570000000    -0.10098    
N83      N      0.691940000000     0.994700000000     0.982340000000    -0.112355   
N84      N      0.616320000000     0.001400000000     0.987690000000    -0.163293   
N85      N      0.101100000000     0.055150000000     0.009470000000    -0.17236    
N86      N      0.177060000000     0.059100000000     0.014590000000    -0.101064   
N87      N      0.323820000000     0.014270000000     0.011060000000    -0.112768   
N88      N      0.399480000000     0.009170000000     0.005200000000    -0.164444   
N89      N      0.986330000000     0.945450000000     0.891330000000    -0.106248   
N90      N      0.987780000000     0.956620000000     0.818910000000    -0.101852   
N91      N      0.030140000000     0.958540000000     0.674140000000    -0.113827   
N92      N      0.032440000000     0.973820000000     0.602520000000    -0.109069   
N93      N      0.975730000000     0.029820000000     0.399030000000    -0.115516   
N94      N      0.998010000000     0.028510000000     0.329140000000    -0.101478   
N95      N      0.019960000000     0.059740000000     0.183430000000    -0.110129   
N96      N      0.042740000000     0.055160000000     0.113700000000    -0.0939082  
O1       O      0.052060000000     0.026680000000     0.033000000000    -0.388857   
O2       O      0.958800000000     0.972180000000     0.021320000000    -0.389484   
O3       O      0.033930000000     0.954140000000     0.024650000000    -0.35761    
O4       O      0.976970000000     0.044800000000     0.029940000000    -0.368595   
O5       O      0.981250000000     0.050670000000     0.971170000000    -0.363853   
O6       O      0.037900000000     0.959820000000     0.965850000000    -0.374524   
O7       O      0.962870000000     0.978140000000     0.962960000000    -0.381152   
O8       O      0.056240000000     0.032260000000     0.974590000000    -0.397245   
O9       O      0.959640000000     0.974900000000     0.463680000000    -0.380727   
O10      O      0.054830000000     0.024800000000     0.479270000000    -0.39514    
O11      O      0.033750000000     0.959240000000     0.448650000000    -0.361508   
O12      O      0.980630000000     0.040590000000     0.494010000000    -0.357772   
O13      O      0.985780000000     0.014720000000     0.546930000000    -0.369859   
O14      O      0.038670000000     0.933240000000     0.501520000000    -0.358391   
O15      O      0.059890000000     0.998910000000     0.531760000000    -0.391509   
O16      O      0.964530000000     0.949170000000     0.516280000000    -0.390218   
O17      O      0.990450000000     0.478360000000     0.087630000000    -0.483238   
O18      O      0.007940000000     0.467840000000     0.989250000000    -0.481059   
O19      O      0.052400000000     0.463770000000     0.046980000000    -0.457897   
O20      O      0.953110000000     0.484360000000     0.029290000000    -0.450439   
O21      O      0.967350000000     0.540940000000     0.030700000000    -0.456148   
O22      O      0.067620000000     0.519760000000     0.040800000000    -0.4504     
O23      O      0.022470000000     0.523870000000     0.986510000000    -0.468379   
O24      O      0.014620000000     0.531130000000     0.086710000000    -0.481309   
O25      O      0.074900000000     0.465470000000     0.532890000000    -0.477902   
O26      O      0.973550000000     0.452100000000     0.543070000000    -0.483648   
O27      O      0.020670000000     0.462600000000     0.486360000000    -0.48576    
O28      O      0.032110000000     0.455110000000     0.586200000000    -0.476273   
O29      O      0.027170000000     0.512730000000     0.589680000000    -0.481109   
O30      O      0.002090000000     0.517120000000     0.492120000000    -0.481097   
O31      O      0.966360000000     0.508560000000     0.553010000000    -0.483237   
O32      O      0.065780000000     0.522570000000     0.530680000000    -0.48261    
O33      O      0.508040000000     0.060600000000     0.970560000000    -0.392073   
O34      O      0.502020000000     0.955320000000     0.963310000000    -0.401314   
O35      O      0.450950000000     0.010320000000     0.971580000000    -0.397581   
O36      O      0.559920000000     0.005310000000     0.962640000000    -0.385267   
O37      O      0.564760000000     0.001380000000     0.021120000000    -0.392247   
O38      O      0.455950000000     0.006030000000     0.030030000000    -0.386066   
O39      O      0.508120000000     0.950590000000     0.021650000000    -0.375647   
O40      O      0.513620000000     0.056770000000     0.029020000000    -0.400372   
O41      O      0.509290000000     0.045010000000     0.494770000000    -0.366124   
O42      O      0.514410000000     0.955350000000     0.437330000000    -0.377593   
O43      O      0.457350000000     0.000640000000     0.460820000000    -0.391391   
O44      O      0.566240000000     0.999520000000     0.471710000000    -0.39635    
O45      O      0.560710000000     0.968150000000     0.521060000000    -0.392414   
O46      O      0.452070000000     0.968920000000     0.509980000000    -0.398808   
O47      O      0.509100000000     0.923690000000     0.486940000000    -0.376049   
O48      O      0.503610000000     0.013340000000     0.544350000000    -0.37124    
O49      O      0.540530000000     0.500800000000     0.925760000000    -0.472364   
O50      O      0.538090000000     0.520140000000     0.024350000000    -0.488163   
O51      O      0.537660000000     0.459530000000     0.986100000000    -0.482115   
O52      O      0.535010000000     0.557240000000     0.967670000000    -0.477043   
O53      O      0.475970000000     0.554320000000     0.961640000000    -0.485492   
O54      O      0.478630000000     0.455870000000     0.979570000000    -0.476917   
O55      O      0.479190000000     0.512240000000     0.023390000000    -0.482682   
O56      O      0.481420000000     0.493900000000     0.924680000000    -0.475917   
O57      O      0.468950000000     0.470890000000     0.470500000000    -0.482472   
O58      O      0.571070000000     0.458670000000     0.472150000000    -0.490083   
O59      O      0.515970000000     0.462470000000     0.521570000000    -0.485331   
O60      O      0.518220000000     0.471580000000     0.421560000000    -0.481795   
O61      O      0.530440000000     0.528070000000     0.426150000000    -0.477286   
O62      O      0.529060000000     0.518690000000     0.526310000000    -0.47816    
O63      O      0.579220000000     0.515840000000     0.474230000000    -0.469101   
O64      O      0.477110000000     0.528010000000     0.473980000000    -0.4857     


