data_structure

_audit_creation_method RASPA-1.0
_audit_creation_date 2023-6-5
_audit_author_name 'Poobodin Mano'

_cell_length_a    61.4172
_cell_length_b    61.8341
_cell_length_c    37.452
_cell_angle_alpha 89.927
_cell_angle_beta  90.0726
_cell_angle_gamma 119.968
_cell_volume      123215

_symmetry_cell_setting          triclinic
_symmetry_space_group_name_Hall 'P 1'
_symmetry_space_group_name_H-M  'P 1'
_symmetry_Int_Tables_number     1

_symmetry_equiv_pos_as_xyz 'x,y,z'

loop_
_atom_site_label
_atom_site_type_symbol
_atom_site_fract_x
_atom_site_fract_y
_atom_site_fract_z
_atom_site_charge
C1       C      0.892630000000     0.721300000000     0.684040000000     0.401841   
C2       C      0.797230000000     0.672410000000     0.640840000000     0.421796   
C3       C      0.830040000000     0.696570000000     0.729590000000     0.424253   
C4       C      0.859600000000     0.697110000000     0.595620000000     0.423309   
C5       C      0.154530000000     0.851800000000     0.728900000000     0.420605   
C6       C      0.254540000000     0.903430000000     0.728590000000     0.405518   
C7       C      0.204640000000     0.885020000000     0.658160000000     0.424119   
C8       C      0.204920000000     0.870400000000     0.798260000000     0.422718   
C9       C      0.470050000000     0.999930000000     0.926780000000     0.423065   
C10      C      0.563960000000     0.038040000000     0.974680000000     0.400176   
C11      C      0.533790000000     0.032320000000     0.884590000000     0.401015   
C12      C      0.499550000000     0.005820000000     0.017130000000     0.424527   
C13      C      0.214920000000     0.327370000000     0.363650000000     0.422004   
C14      C      0.115420000000     0.287350000000     0.354470000000     0.421711   
C15      C      0.163150000000     0.310200000000     0.429830000000     0.39935    
C16      C      0.167250000000     0.304400000000     0.288150000000     0.401811   
C17      C      0.785940000000     0.126860000000     0.163130000000     0.421335   
C18      C      0.884660000000     0.177470000000     0.188010000000     0.401897   
C19      C      0.843610000000     0.160630000000     0.105780000000     0.400886   
C20      C      0.826930000000     0.143310000000     0.245140000000     0.426301   
C21      C      0.556560000000     0.527610000000     0.497970000000     0.399992   
C22      C      0.469970000000     0.467060000000     0.432440000000     0.399661   
C23      C      0.492490000000     0.480150000000     0.528880000000     0.421804   
C24      C      0.534670000000     0.514790000000     0.401600000000     0.399574   
C25      C      0.143590000000     0.330940000000     0.891930000000     0.403376   
C26      C      0.189350000000     0.288940000000     0.824180000000     0.399779   
C27      C      0.182200000000     0.302820000000     0.921130000000     0.423199   
C28      C      0.150710000000     0.316970000000     0.795100000000     0.415501   
C29      C      0.330620000000     0.193690000000     0.667610000000     0.420441   
C30      C      0.390340000000     0.162710000000     0.612260000000     0.420165   
C31      C      0.371890000000     0.170890000000     0.705780000000     0.401047   
C32      C      0.348780000000     0.185650000000     0.574200000000     0.402574   
C33      C      0.020070000000     0.553420000000     0.994840000000     0.402889   
C34      C      0.047830000000     0.484720000000     0.982070000000     0.422021   
C35      C      0.031200000000     0.513150000000     0.059500000000     0.42157    
C36      C      0.036750000000     0.525120000000     0.918060000000     0.423527   
C37      C      0.672430000000     0.870110000000     0.381930000000     0.401856   
C38      C      0.716660000000     0.825570000000     0.316790000000     0.400308   
C39      C      0.705860000000     0.836870000000     0.413160000000     0.422277   
C40      C      0.683340000000     0.858620000000     0.285470000000     0.418829   
C41      C      0.851020000000     0.716230000000     0.180440000000     0.420466   
C42      C      0.908080000000     0.677580000000     0.141990000000     0.421118   
C43      C      0.889340000000     0.693630000000     0.229560000000     0.400296   
C44      C      0.869910000000     0.699850000000     0.092310000000     0.401715   
C45      C      0.557620000000     0.008830000000     0.457860000000     0.421563   
C46      C      0.512250000000     0.062040000000     0.436310000000     0.403568   
C47      C      0.530180000000     0.022660000000     0.378740000000     0.401614   
C48      C      0.539740000000     0.048200000000     0.515680000000     0.427446   
C49      C      0.315820000000     0.130310000000     0.159520000000     0.422733   
C50      C      0.374250000000     0.223420000000     0.112930000000     0.403582   
C51      C      0.353240000000     0.192090000000     0.204240000000     0.418578   
C52      C      0.337080000000     0.161360000000     0.068930000000     0.429548   
C53      C      0.506260000000     0.467390000000     0.979600000000     0.421507   
C54      C      0.556690000000     0.564280000000     0.947090000000     0.400712   
C55      C      0.542100000000     0.525890000000     0.032520000000     0.418636   
C56      C      0.520630000000     0.505780000000     0.894210000000     0.400531   
C57      C      0.179600000000     0.875300000000     0.235680000000     0.398879   
C58      C      0.134710000000     0.775980000000     0.237030000000     0.422129   
C59      C      0.163890000000     0.826780000000     0.166410000000     0.400182   
C60      C      0.150680000000     0.825130000000     0.307140000000     0.399877   
C61      C      0.052440000000     0.575920000000     0.457940000000     0.399775   
C62      C      0.026010000000     0.490460000000     0.525710000000     0.399326   
C63      C      0.033340000000     0.510670000000     0.428490000000     0.400087   
C64      C      0.044980000000     0.555340000000     0.554380000000     0.400403   
C65      C      0.916030000000     0.250160000000     0.662920000000     0.422709   
C66      C      0.858570000000     0.151660000000     0.678800000000     0.400264   
C67      C      0.884080000000     0.196280000000     0.600500000000     0.401496   
C68      C      0.890490000000     0.205710000000     0.741930000000     0.422545   
C69      C      0.684760000000     0.819350000000     0.862590000000     0.420166   
C70      C      0.734030000000     0.916920000000     0.833860000000     0.421755   
C71      C      0.709200000000     0.877030000000     0.917720000000     0.399115   
C72      C      0.709110000000     0.858090000000     0.778960000000     0.401017   
C73      C      0.743650000000     0.975640000000     0.794440000000    -0.035707   
C74      C      0.843150000000     0.090160000000     0.711880000000    -0.0300318  
C75      C      0.816180000000     0.114150000000     0.683900000000    -0.00733718 
C76      C      0.854950000000     0.109970000000     0.682630000000    -0.00687042 
C77      C      0.804840000000     0.058160000000     0.769560000000    -0.0546047  
C78      C      0.780750000000     0.010510000000     0.739060000000    -0.053794   
C79      C      0.803800000000     0.055600000000     0.732130000000     0.0630923  
C80      C      0.805530000000     0.093980000000     0.712920000000    -0.029861   
C81      C      0.781640000000     0.013050000000     0.776500000000     0.0625643  
C82      C      0.783950000000     0.977280000000     0.797600000000    -0.119559   
C83      C      0.793750000000     0.037010000000     0.791450000000    -0.0518324  
C84      C      0.774440000000     0.957090000000     0.826620000000     0.325168   
C85      C      0.732610000000     0.955660000000     0.823540000000    -0.00199365 
C86      C      0.791690000000     0.031650000000     0.717180000000    -0.0518456  
C87      C      0.972400000000     0.313930000000     0.645190000000    -0.0355055  
C88      C      0.985120000000     0.427920000000     0.565680000000    -0.0301374  
C89      C      0.038590000000     0.462990000000     0.556310000000    -0.00644013 
C90      C      0.994130000000     0.455680000000     0.561630000000    -0.00666815 
C91      C      0.994060000000     0.392970000000     0.629410000000    -0.0508776  
C92      C      0.974560000000     0.354620000000     0.578800000000    -0.0516484  
C93      C      0.995430000000     0.398880000000     0.593060000000     0.0630991  
C94      C      0.027460000000     0.434760000000     0.560700000000    -0.0304193  
C95      C      0.972280000000     0.348670000000     0.615200000000     0.063137   
C96      C      0.935350000000     0.317760000000     0.646240000000    -0.12129    
C97      C      0.982690000000     0.368080000000     0.640510000000    -0.0535963  
C98      C      0.917530000000     0.289650000000     0.649200000000     0.326606   
C99      C      0.957420000000     0.285410000000     0.647680000000     0.00161282 
C100     C      0.986120000000     0.379500000000     0.567690000000    -0.0542762  
C101     C      0.087610000000     0.719200000000     0.273110000000    -0.036457   
C102     C      0.090050000000     0.629680000000     0.399510000000    -0.0300217  
C103     C      0.040600000000     0.605720000000     0.432910000000    -0.00728553 
C104     C      0.086140000000     0.616610000000     0.435530000000    -0.00703287 
C105     C      0.088300000000     0.681200000000     0.370930000000    -0.0522237  
C106     C      0.082800000000     0.662870000000     0.301300000000    -0.052514   
C107     C      0.078570000000     0.655600000000     0.365440000000     0.0626544  
C108     C      0.046330000000     0.619420000000     0.397060000000    -0.0299057  
C109     C      0.092720000000     0.688500000000     0.306810000000     0.0627176  
C110     C      0.128560000000     0.721210000000     0.275910000000    -0.122051   
C111     C      0.095410000000     0.697580000000     0.341960000000    -0.0543661  
C112     C      0.136800000000     0.736510000000     0.241430000000     0.327788   
C113     C      0.095490000000     0.734810000000     0.238790000000    -0.00266669 
C114     C      0.075820000000     0.646490000000     0.330310000000    -0.0547704  
C115     C      0.672190000000     0.754250000000     0.878760000000    -0.0357694  
C116     C      0.571130000000     0.629980000000     0.932320000000    -0.0300242  
C117     C      0.595790000000     0.600280000000     0.925050000000    -0.00689646 
C118     C      0.554950000000     0.601640000000     0.929050000000    -0.00632344 
C119     C      0.617170000000     0.681550000000     0.938680000000    -0.0546164  
C120     C      0.626640000000     0.701620000000     0.869690000000    -0.0537269  
C121     C      0.608700000000     0.665500000000     0.908930000000     0.063378   
C122     C      0.609800000000     0.628730000000     0.928680000000    -0.0296195  
C123     C      0.634620000000     0.717690000000     0.899450000000     0.06252    
C124     C      0.632380000000     0.753100000000     0.876310000000    -0.119488   
C125     C      0.629930000000     0.707430000000     0.933850000000    -0.0514682  
C126     C      0.644750000000     0.781560000000     0.878570000000     0.324295   
C127     C      0.686990000000     0.782650000000     0.882230000000    -0.000230741
C128     C      0.613700000000     0.675760000000     0.874530000000    -0.0516979  
C129     C      0.296580000000     0.065120000000     0.185460000000    -0.0356196  
C130     C      0.190580000000     0.940720000000     0.225990000000    -0.0299391  
C131     C      0.219340000000     0.914820000000     0.231380000000    -0.00659887 
C132     C      0.176740000000     0.912420000000     0.220570000000    -0.00649786 
C133     C      0.234430000000     0.993970000000     0.239910000000    -0.0543986  
C134     C      0.250440000000     0.014680000000     0.171920000000    -0.0536642  
C135     C      0.229230000000     0.978230000000     0.210160000000     0.0632909  
C136     C      0.230390000000     0.942920000000     0.236060000000    -0.0296822  
C137     C      0.256200000000     0.030480000000     0.201750000000     0.0632054  
C138     C      0.258980000000     0.067850000000     0.176530000000    -0.119233   
C139     C      0.247880000000     0.019900000000     0.235620000000    -0.0516635  
C140     C      0.273680000000     0.096440000000     0.178540000000     0.325013   
C141     C      0.313060000000     0.093390000000     0.188640000000    -0.00129378 
C142     C      0.237120000000     0.988800000000     0.176240000000    -0.0511274  
C143     C      0.492820000000     0.402150000000     0.999510000000    -0.0356106  
C144     C      0.394130000000     0.288490000000     0.083300000000    -0.0287617  
C145     C      0.414780000000     0.255050000000     0.087430000000    -0.00662048 
C146     C      0.376080000000     0.260450000000     0.085960000000    -0.00763238 
C147     C      0.443600000000     0.338090000000     0.079520000000    -0.0543823  
C148     C      0.446900000000     0.350350000000     0.007020000000    -0.0531148  
C149     C      0.431980000000     0.319000000000     0.053900000000     0.0641236  
C150     C      0.430720000000     0.283520000000     0.084070000000    -0.02935    
C151     C      0.458310000000     0.369470000000     0.032660000000     0.063023   
C152     C      0.454350000000     0.403120000000     0.006510000000    -0.119796   
C153     C      0.456680000000     0.363100000000     0.068850000000    -0.0509917  
C154     C      0.467610000000     0.431610000000     0.003390000000     0.324818   
C155     C      0.508790000000     0.430510000000     0.996720000000     0.000403945
C156     C      0.433890000000     0.325360000000     0.017680000000    -0.0509954  
C157     C      0.690370000000     0.817310000000     0.504760000000    -0.0361198  
C158     C      0.688410000000     0.844300000000     0.683530000000    -0.0291301  
C159     C      0.730390000000     0.851280000000     0.728290000000    -0.00690596 
C160     C      0.684520000000     0.840490000000     0.723910000000    -0.00812242 
C161     C      0.711330000000     0.816720000000     0.619460000000    -0.0521192  
C162     C      0.711680000000     0.852390000000     0.573180000000    -0.0532011  
C163     C      0.709210000000     0.836580000000     0.633500000000     0.0632494  
C164     C      0.732050000000     0.855260000000     0.687890000000    -0.0294242  
C165     C      0.714130000000     0.832540000000     0.559240000000     0.0627972  
C166     C      0.733680000000     0.851690000000     0.502150000000    -0.12102    
C167     C      0.713880000000     0.814790000000     0.582740000000    -0.0519212  
C168     C      0.736280000000     0.845340000000     0.463400000000     0.326208   
C169     C      0.691930000000     0.809620000000     0.466480000000    -0.00210469 
C170     C      0.709930000000     0.854760000000     0.610040000000    -0.0538443  
C171     C      0.687950000000     0.890750000000     0.197540000000    -0.0354643  
C172     C      0.722540000000     0.877680000000     0.016270000000    -0.0296248  
C173     C      0.688310000000     0.883940000000     0.968580000000    -0.00607863 
C174     C      0.721500000000     0.870460000000     0.977010000000    -0.00681053 
C175     C      0.714810000000     0.886330000000     0.090150000000    -0.0538799  
C176     C      0.665520000000     0.861210000000     0.115960000000    -0.0521954  
C177     C      0.694640000000     0.874870000000     0.065780000000     0.0629437  
C178     C      0.692740000000     0.891740000000     0.007830000000    -0.0296491  
C179     C      0.685720000000     0.871010000000     0.140430000000     0.0612254  
C180     C      0.657850000000     0.847250000000     0.190880000000    -0.119484   
C181     C      0.710320000000     0.883790000000     0.126900000000    -0.0509996  
C182     C      0.658150000000     0.842320000000     0.231140000000     0.32383    
C183     C      0.694310000000     0.888500000000     0.236280000000     0.00755089 
C184     C      0.670040000000     0.862650000000     0.079250000000    -0.0514124  
C185     C      0.794550000000     0.721210000000     0.206800000000    -0.0358126  
C186     C      0.767140000000     0.815330000000     0.280240000000    -0.0299393  
C187     C      0.712590000000     0.787930000000     0.287760000000    -0.00673867 
C188     C      0.753040000000     0.829810000000     0.283060000000    -0.00673165 
C189     C      0.776410000000     0.771330000000     0.280160000000    -0.0546983  
C190     C      0.780850000000     0.762570000000     0.207980000000    -0.0535995  
C191     C      0.764770000000     0.778520000000     0.254000000000     0.0634052  
C192     C      0.728660000000     0.775460000000     0.284810000000    -0.0297892  
C193     C      0.792940000000     0.755850000000     0.234080000000     0.062391   
C194     C      0.830350000000     0.762730000000     0.203150000000    -0.120123   
C195     C      0.790420000000     0.760150000000     0.270150000000    -0.0513968  
C196     C      0.848980000000     0.753220000000     0.200070000000     0.324956   
C197     C      0.810780000000     0.708910000000     0.204590000000     0.000263262
C198     C      0.766940000000     0.773840000000     0.217980000000    -0.051769   
C199     C      0.566950000000     0.953070000000     0.468590000000    -0.0355575  
C200     C      0.661520000000     0.920970000000     0.410710000000    -0.0301431  
C201     C      0.635080000000     0.866590000000     0.412430000000    -0.00623738 
C202     C      0.676500000000     0.907330000000     0.412540000000    -0.00643038 
C203     C      0.621210000000     0.927200000000     0.466930000000    -0.0519068  
C204     C      0.603390000000     0.941360000000     0.407770000000    -0.0512046  
C205     C      0.624150000000     0.919990000000     0.432640000000     0.0634962  
C206     C      0.621760000000     0.881900000000     0.410900000000    -0.0303642  
C207     C      0.600520000000     0.948640000000     0.442020000000     0.0627161  
C208     C      0.607160000000     0.989380000000     0.457760000000    -0.120376   
C209     C      0.609570000000     0.941500000000     0.471700000000    -0.053957   
C210     C      0.596120000000     0.006470000000     0.451910000000     0.325379   
C211     C      0.552620000000     0.967220000000     0.463870000000     0.0020984  
C212     C      0.615170000000     0.927230000000     0.402980000000    -0.054485   
C213     C      0.063320000000     0.552770000000     0.829070000000    -0.0353858  
C214     C      0.024440000000     0.552580000000     0.643570000000    -0.0303345  
C215     C      0.072120000000     0.579060000000     0.605710000000    -0.00693692 
C216     C      0.026030000000     0.564200000000     0.606850000000    -0.00689487 
C217     C      0.044680000000     0.535000000000     0.707010000000    -0.0542948  
C218     C      0.045250000000     0.565740000000     0.762160000000    -0.0539167  
C219     C      0.046960000000     0.558290000000     0.698810000000     0.0628947  
C220     C      0.069680000000     0.567420000000     0.642630000000    -0.0301298  
C221     C      0.043990000000     0.542900000000     0.770410000000     0.0629788  
C222     C      0.018210000000     0.526930000000     0.823240000000    -0.119075   
C223     C      0.043460000000     0.527570000000     0.742540000000    -0.0517361  
C224     C      0.015930000000     0.513660000000     0.858800000000     0.325205   
C225     C      0.063520000000     0.540900000000     0.864760000000    -0.0015153  
C226     C      0.046970000000     0.573410000000     0.726640000000    -0.0518439  
C227     C      0.051320000000     0.516950000000     0.154890000000    -0.0356437  
C228     C      0.006460000000     0.492900000000     0.340240000000    -0.0299256  
C229     C      0.052100000000     0.501300000000     0.376300000000    -0.00717401 
C230     C      0.005550000000     0.484750000000     0.379070000000    -0.00726662 
C231     C      0.027850000000     0.518730000000     0.270070000000    -0.0545518  
C232     C      0.027300000000     0.483670000000     0.222420000000    -0.0533827  
C233     C      0.027180000000     0.497080000000     0.283370000000     0.0630125  
C234     C      0.051820000000     0.509280000000     0.337640000000    -0.0299644  
C235     C      0.026950000000     0.504830000000     0.209140000000     0.0627416  
C236     C      0.006620000000     0.488520000000     0.151850000000    -0.119712   
C237     C      0.027470000000     0.522360000000     0.233290000000    -0.0519444  
C238     C      0.004800000000     0.496320000000     0.113600000000     0.324876   
C239     C      0.052130000000     0.527280000000     0.117550000000     4.92713e-05
C240     C      0.027140000000     0.479780000000     0.259220000000    -0.0512332  
C241     C      0.962460000000     0.674940000000     0.103580000000    -0.0359871  
C242     C      0.978870000000     0.576920000000     0.021780000000    -0.0296467  
C243     C      0.031380000000     0.597780000000     0.001560000000    -0.00708332 
C244     C      0.986230000000     0.564100000000     0.993310000000    -0.00709467 
C245     C      0.987120000000     0.614660000000     0.081340000000    -0.0543489  
C246     C      0.967420000000     0.641820000000     0.048440000000    -0.0535614  
C247     C      0.988020000000     0.617100000000     0.043880000000     0.0635957  
C248     C      0.022480000000     0.609790000000     0.029460000000    -0.0299939  
C249     C      0.966350000000     0.639230000000     0.085880000000     0.062703   
C250     C      0.925880000000     0.633470000000     0.101980000000    -0.120266   
C251     C      0.976490000000     0.625780000000     0.102050000000    -0.051558   
C252     C      0.912100000000     0.640180000000     0.129900000000     0.325435   
C253     C      0.950450000000     0.683680000000     0.131640000000    -0.00152489 
C254     C      0.978310000000     0.630940000000     0.027760000000    -0.051599   
C255     C      0.354670000000     0.145050000000     0.985110000000    -0.0358378  
C256     C      0.378580000000     0.185450000000     0.798960000000    -0.0301584  
C257     C      0.367530000000     0.142230000000     0.755200000000    -0.00723855 
C258     C      0.392580000000     0.188720000000     0.763690000000    -0.00712059 
C259     C      0.337020000000     0.147650000000     0.860050000000    -0.0525984  
C260     C      0.373190000000     0.166260000000     0.914210000000    -0.0529562  
C261     C      0.362690000000     0.158680000000     0.851050000000     0.0635082  
C262     C      0.354520000000     0.140210000000     0.790820000000    -0.0296863  
C263     C      0.347470000000     0.153420000000     0.923350000000     0.0635837  
C264     C      0.333670000000     0.168890000000     0.972870000000    -0.119094   
C265     C      0.329590000000     0.144620000000     0.895830000000    -0.0508545  
C266     C      0.319600000000     0.160950000000     0.008650000000     0.326185   
C267     C      0.341430000000     0.136370000000     0.021070000000    -0.00102579 
C268     C      0.380590000000     0.168280000000     0.878520000000    -0.0510089  
C269     C      0.345950000000     0.213740000000     0.295470000000    -0.0354519  
C270     C      0.360270000000     0.216220000000     0.487110000000    -0.0295136  
C271     C      0.324780000000     0.168150000000     0.518410000000    -0.00677129 
C272     C      0.352080000000     0.214710000000     0.526040000000    -0.00770656 
C273     C      0.323050000000     0.186040000000     0.405420000000    -0.0512771  
C274     C      0.370950000000     0.209900000000     0.374940000000    -0.0524669  
C275     C      0.344160000000     0.197550000000     0.427810000000     0.063301   
C276     C      0.334490000000     0.171210000000     0.480050000000    -0.0298504  
C277     C      0.349660000000     0.197420000000     0.352660000000     0.0623603  
C278     C      0.374880000000     0.198500000000     0.300640000000    -0.120166   
C279     C      0.325770000000     0.185610000000     0.368460000000    -0.0511099  
C280     C      0.372210000000     0.190910000000     0.261230000000     0.32412    
C281     C      0.339200000000     0.205320000000     0.256730000000     0.00259779 
C282     C      0.368260000000     0.209310000000     0.412060000000    -0.0526367  
C283     C      0.443620000000     0.165680000000     0.561290000000    -0.0357436  
C284     C      0.465600000000     0.075640000000     0.463700000000    -0.0325084  
C285     C      0.514810000000     0.103300000000     0.430160000000    -0.0059695  
C286     C      0.473030000000     0.064260000000     0.433140000000    -0.00357442 
C287     C      0.474030000000     0.112740000000     0.523510000000    -0.0542219  
C288     C      0.446000000000     0.134360000000     0.499940000000    -0.0528793  
C289     C      0.470330000000     0.114180000000     0.486640000000     0.0646695  
C290     C      0.506580000000     0.114150000000     0.460670000000    -0.0306324  
C291     C      0.449250000000     0.132440000000     0.536830000000     0.0627587  
C292     C      0.409260000000     0.122910000000     0.561660000000    -0.11994    
C293     C      0.463570000000     0.121830000000     0.548280000000    -0.049596   
C294     C      0.396820000000     0.127660000000     0.593700000000     0.325407   
C295     C      0.432830000000     0.172460000000     0.593460000000    -0.00205763 
C296     C      0.456510000000     0.125310000000     0.475160000000    -0.0519254  
C297     C      0.044490000000     0.422500000000     0.971970000000    -0.0350662  
C298     C      0.133390000000     0.381520000000     0.923040000000    -0.029802   
C299     C      0.105650000000     0.327130000000     0.921160000000    -0.00589416 
C300     C      0.147520000000     0.367120000000     0.925360000000    -0.00671837 
C301     C      0.090290000000     0.391480000000     0.912540000000    -0.0538223  
C302     C      0.081240000000     0.402650000000     0.981390000000    -0.0533427  
C303     C      0.095830000000     0.381170000000     0.942360000000     0.0640501  
C304     C      0.093030000000     0.343140000000     0.919260000000    -0.0306936  
C305     C      0.076760000000     0.413840000000     0.951620000000     0.0633854  
C306     C      0.088060000000     0.454510000000     0.974950000000    -0.120246   
C307     C      0.080930000000     0.407750000000     0.917260000000    -0.0504768  
C308     C      0.082090000000     0.475670000000     0.971870000000     0.325458   
C309     C      0.035510000000     0.441400000000     0.967810000000    -1.86682e-05
C310     C      0.090800000000     0.386540000000     0.976670000000    -0.0509788  
C311     C      0.272640000000     0.193150000000     0.700740000000    -0.0358029  
C312     C      0.240370000000     0.281240000000     0.783390000000    -0.030258   
C313     C      0.186260000000     0.251760000000     0.795060000000    -0.00655333 
C314     C      0.225300000000     0.294610000000     0.787980000000    -0.00655676 
C315     C      0.251800000000     0.238530000000     0.780580000000    -0.0541127  
C316     C      0.255520000000     0.231610000000     0.707500000000    -0.0536797  
C317     C      0.238910000000     0.245250000000     0.755850000000     0.0634016  
C318     C      0.203280000000     0.240480000000     0.790080000000    -0.0302122  
C319     C      0.268750000000     0.225270000000     0.732180000000     0.0628766  
C320     C      0.306890000000     0.235710000000     0.700430000000    -0.120192   
C321     C      0.266590000000     0.228640000000     0.768710000000    -0.0510692  
C322     C      0.326640000000     0.227860000000     0.695020000000     0.3252     
C323     C      0.290250000000     0.182580000000     0.695770000000    -0.000299862
C324     C      0.240740000000     0.241500000000     0.719360000000    -0.0514764  
C325     C      0.478410000000     0.490990000000     0.617740000000    -0.0360524  
C326     C      0.520710000000     0.485540000000     0.799860000000    -0.0304115  
C327     C      0.497400000000     0.508110000000     0.842250000000    -0.0066014  
C328     C      0.533120000000     0.498460000000     0.835020000000    -0.00566986 
C329     C      0.515790000000     0.507120000000     0.720000000000    -0.0517125  
C330     C      0.473420000000     0.461760000000     0.701790000000    -0.0511082  
C331     C      0.500990000000     0.490760000000     0.747110000000     0.0632184  
C332     C      0.487230000000     0.495030000000     0.806450000000    -0.0298893  
C333     C      0.487830000000     0.478460000000     0.674700000000     0.063036   
C334     C      0.496780000000     0.463870000000     0.619850000000    -0.11995    
C335     C      0.509530000000     0.500970000000     0.684100000000    -0.0538277  
C336     C      0.486270000000     0.453440000000     0.582720000000     0.32591    
C337     C      0.467780000000     0.481450000000     0.580400000000    -0.00245572 
C338     C      0.480050000000     0.467640000000     0.737690000000    -0.0537629  
C339     C      0.537290000000     0.540590000000     0.128970000000    -0.0354489  
C340     C      0.555670000000     0.510400000000     0.312100000000    -0.0301244  
C341     C      0.543290000000     0.543700000000     0.350790000000    -0.00687858 
C342     C      0.561660000000     0.515260000000     0.351960000000    -0.00739535 
C343     C      0.534090000000     0.509350000000     0.239700000000    -0.0545868  
C344     C      0.569820000000     0.549020000000     0.198550000000    -0.053905   
C345     C      0.553960000000     0.530170000000     0.256740000000     0.0626817  
C346     C      0.537530000000     0.537620000000     0.311080000000    -0.0302268  
C347     C      0.550600000000     0.527680000000     0.181510000000     0.0624043  
C348     C      0.571220000000     0.531920000000     0.124120000000    -0.119476   
C349     C      0.532690000000     0.508070000000     0.202450000000    -0.051739   
C350     C      0.565640000000     0.524300000000     0.084730000000     0.324016   
C351     C      0.528270000000     0.532270000000     0.090800000000     0.00128895 
C352     C      0.571590000000     0.550030000000     0.235830000000    -0.0517314  
C353     C      0.874970000000     0.212870000000     0.837080000000    -0.0352177  
C354     C      0.855290000000     0.192210000000     0.016850000000    -0.0296759  
C355     C      0.850680000000     0.146710000000     0.047720000000    -0.00621238 
C356     C      0.841360000000     0.182590000000     0.052280000000    -0.00732525 
C357     C      0.844710000000     0.162090000000     0.931860000000    -0.052549   
C358     C      0.890870000000     0.203640000000     0.913720000000    -0.0532613  
C359     C      0.860620000000     0.177520000000     0.958880000000     0.063397   
C360     C      0.864670000000     0.158650000000     0.013100000000    -0.0300513  
C361     C      0.874790000000     0.187980000000     0.886660000000     0.0626429  
C362     C      0.905710000000     0.199730000000     0.838630000000    -0.119725   
C363     C      0.851760000000     0.167220000000     0.896110000000    -0.0521662  
C364     C      0.907610000000     0.199500000000     0.797740000000     0.325039   
C365     C      0.872390000000     0.211360000000     0.796610000000     0.00438107 
C366     C      0.884090000000     0.198110000000     0.949620000000    -0.053694   
C367     C      0.827860000000     0.163150000000     0.335420000000    -0.0354985  
C368     C      0.884450000000     0.171720000000     0.511290000000    -0.0303543  
C369     C      0.868680000000     0.204430000000     0.544070000000    -0.00718063 
C370     C      0.898760000000     0.187630000000     0.543690000000    -0.00644019 
C371     C      0.841050000000     0.149990000000     0.454000000000    -0.0540734  
C372     C      0.866630000000     0.175160000000     0.392110000000    -0.0541131  
C373     C      0.863840000000     0.172780000000     0.456740000000     0.0633435  
C374     C      0.855660000000     0.188060000000     0.511740000000    -0.0297151  
C375     C      0.842910000000     0.153390000000     0.389370000000     0.0635013  
C376     C      0.842920000000     0.133240000000     0.334090000000    -0.119713   
C377     C      0.830580000000     0.140600000000     0.420500000000    -0.0515956  
C378     C      0.827390000000     0.120840000000     0.300480000000     0.326375   
C379     C      0.812040000000     0.151590000000     0.302020000000    -0.00212467 
C380     C      0.876780000000     0.184880000000     0.425590000000    -0.0520288  
C381     C      0.151980000000     0.341460000000     0.703070000000    -0.035139   
C382     C      0.161600000000     0.334720000000     0.520630000000    -0.0298159  
C383     C      0.160300000000     0.291070000000     0.488570000000    -0.00652257 
C384     C      0.171960000000     0.336810000000     0.482870000000    -0.00688046 
C385     C      0.178310000000     0.318190000000     0.603210000000    -0.051984   
C386     C      0.134230000000     0.315340000000     0.628970000000    -0.055029   
C387     C      0.160190000000     0.316640000000     0.578990000000     0.0624464  
C388     C      0.150120000000     0.291300000000     0.525740000000    -0.0298767  
C389     C      0.152460000000     0.316750000000     0.653160000000     0.0640371  
C390     C      0.127500000000     0.295470000000     0.706120000000    -0.113087   
C391     C      0.174450000000     0.318170000000     0.639950000000    -0.0531257  
C392     C      0.120880000000     0.299920000000     0.744240000000     0.320819   
C393     C      0.157580000000     0.344300000000     0.743190000000     0.019329   
C394     C      0.137830000000     0.314790000000     0.592170000000    -0.0529512  
C395     C      0.169430000000     0.276930000000     0.009380000000    -0.0357814  
C396     C      0.183350000000     0.323590000000     0.193120000000    -0.0301624  
C397     C      0.157520000000     0.277710000000     0.234940000000    -0.006249   
C398     C      0.171850000000     0.324010000000     0.229190000000    -0.00604007 
C399     C      0.196410000000     0.298100000000     0.129010000000    -0.0535481  
C400     C      0.164370000000     0.299670000000     0.077230000000    -0.0536981  
C401     C      0.174730000000     0.298730000000     0.139660000000     0.0634951  
C402     C      0.169330000000     0.279490000000     0.198360000000    -0.0300282  
C403     C      0.185210000000     0.297530000000     0.066570000000     0.0633942  
C404     C      0.201640000000     0.321100000000     0.012040000000    -0.119804   
C405     C      0.201330000000     0.297150000000     0.092770000000    -0.050807   
C406     C      0.210660000000     0.319950000000     0.974290000000     0.326423   
C407     C      0.177520000000     0.274790000000     0.971560000000    -0.0022681  
C408     C      0.159060000000     0.299900000000     0.113450000000    -0.0516204  
C409     C      0.054000000000     0.240860000000     0.322750000000    -0.0361266  
C410     C      0.942560000000     0.226490000000     0.228410000000    -0.0298347  
C411     C      0.925020000000     0.177950000000     0.195210000000    -0.00631073 
C412     C      0.923650000000     0.218010000000     0.197620000000    -0.00686349 
C413     C      0.003750000000     0.236810000000     0.237340000000    -0.0518962  
C414     C      0.995250000000     0.233280000000     0.311010000000    -0.0515253  
C415     C      0.979050000000     0.225190000000     0.250210000000     0.0633587  
C416     C      0.943780000000     0.187720000000     0.226210000000    -0.0299926  
C417     C      0.019950000000     0.245070000000     0.298140000000     0.0626702  
C418     C      0.057580000000     0.281930000000     0.319030000000    -0.120412   
C419     C      0.024070000000     0.246590000000     0.260990000000    -0.053643   
C420     C      0.077120000000     0.291900000000     0.349120000000     0.325817   
C421     C      0.073170000000     0.249580000000     0.353200000000    -0.00247705 
C422     C      0.974910000000     0.223300000000     0.287360000000    -0.05453    
C423     C      0.283250000000     0.376000000000     0.367980000000    -0.0357009  
C424     C      0.412530000000     0.408420000000     0.409650000000    -0.0302039  
C425     C      0.432300000000     0.461860000000     0.400820000000    -0.00670785 
C426     C      0.440890000000     0.426030000000     0.405100000000    -0.00689746 
C427     C      0.359780000000     0.393880000000     0.357040000000    -0.0518545  
C428     C      0.331060000000     0.379400000000     0.419540000000    -0.0516073  
C429     C      0.371800000000     0.401490000000     0.390220000000     0.0629459  
C430     C      0.404420000000     0.443070000000     0.405790000000    -0.0299655  
C431     C      0.318980000000     0.372570000000     0.386330000000     0.0625159  
C432     C      0.280170000000     0.335590000000     0.368550000000    -0.118639   
C433     C      0.333600000000     0.379480000000     0.354990000000    -0.0538397  
C434     C      0.251620000000     0.321890000000     0.374500000000     0.324254   
C435     C      0.255240000000     0.365130000000     0.374770000000     0.000265679
C436     C      0.357240000000     0.393690000000     0.421600000000    -0.0545526  
C437     C      0.566750000000     0.059880000000     0.604680000000    -0.0363156  
C438     C      0.548100000000     0.066430000000     0.796570000000    -0.0287446  
C439     C      0.546070000000     0.021950000000     0.827710000000    -0.00561678 
C440     C      0.536780000000     0.058290000000     0.833750000000    -0.00789586 
C441     C      0.562720000000     0.071970000000     0.722040000000    -0.0532563  
C442     C      0.534760000000     0.030430000000     0.678420000000    -0.0531513  
C443     C      0.547560000000     0.048310000000     0.737730000000     0.0632517  
C444     C      0.558070000000     0.033520000000     0.791810000000    -0.029923   
C445     C      0.547640000000     0.054440000000     0.663050000000     0.0633514  
C446     C      0.521290000000     0.041880000000     0.609230000000    -0.123562   
C447     C      0.562240000000     0.074980000000     0.685130000000    -0.0517064  
C448     C      0.519930000000     0.051110000000     0.572010000000     0.328269   
C449     C      0.566870000000     0.069930000000     0.567180000000    -0.000736998
C450     C      0.534230000000     0.027590000000     0.715410000000    -0.0506821  
C451     C      0.500310000000     0.018180000000     0.110800000000    -0.0357283  
C452     C      0.499950000000     0.986900000000     0.297310000000    -0.0299239  
C453     C      0.545710000000     0.032760000000     0.316780000000    -0.00630763 
C454     C      0.511980000000     0.989020000000     0.333770000000    -0.00688186 
C455     C      0.487920000000     0.997920000000     0.225150000000    -0.0545905  
C456     C      0.518580000000     0.995230000000     0.172260000000    -0.0536001  
C457     C      0.510460000000     0.998670000000     0.234840000000     0.0636083  
C458     C      0.532140000000     0.029080000000     0.281130000000    -0.0301894  
C459     C      0.495530000000     0.993430000000     0.162700000000     0.0632539  
C460     C      0.491580000000     0.975340000000     0.103220000000    -0.121136   
C461     C      0.480390000000     0.994860000000     0.189460000000    -0.0517159  
C462     C      0.480430000000     0.973860000000     0.066060000000     0.326415   
C463     C      0.488620000000     0.017530000000     0.074590000000    -0.00207692 
C464     C      0.525660000000     0.997370000000     0.208080000000    -0.0519757  
C465     C      0.729310000000     0.081210000000     0.116990000000    -0.0361205  
C466     C      0.620730000000     0.078100000000     0.027550000000    -0.0300139  
C467     C      0.600980000000     0.032950000000     0.984500000000    -0.00701519 
C468     C      0.603490000000     0.074480000000     0.995810000000    -0.00707673 
C469     C      0.679500000000     0.084310000000     0.036390000000    -0.0519468  
C470     C      0.667890000000     0.070750000000     0.108080000000    -0.0518811  
C471     C      0.654310000000     0.071190000000     0.047140000000     0.0630059  
C472     C      0.618200000000     0.038140000000     0.016720000000    -0.0296945  
C473     C      0.693090000000     0.083960000000     0.097360000000     0.0629053  
C474     C      0.726570000000     0.118540000000     0.129030000000    -0.121001   
C475     C      0.698790000000     0.090740000000     0.061200000000    -0.0540225  
C476     C      0.744360000000     0.125270000000     0.160900000000     0.326694   
C477     C      0.747460000000     0.087010000000     0.148360000000    -0.00272765 
C478     C      0.648600000000     0.064400000000     0.083280000000    -0.0543892  
C479     C      0.177990000000     0.889890000000     0.574320000000    -0.036083   
C480     C      0.171500000000     0.834770000000     0.399340000000    -0.0299563  
C481     C      0.128290000000     0.829320000000     0.359430000000    -0.00672747 
C482     C      0.161410000000     0.817070000000     0.367520000000    -0.00693572 
C483     C      0.147710000000     0.838070000000     0.481430000000    -0.0515515  
C484     C      0.189380000000     0.886260000000     0.484100000000    -0.0517715  
C485     C      0.159060000000     0.850460000000     0.449590000000     0.0628104  
C486     C      0.139420000000     0.846730000000     0.391760000000    -0.0304441  
C487     C      0.179020000000     0.873240000000     0.515940000000     0.0632471  
C488     C      0.200920000000     0.867450000000     0.565230000000    -0.1229     
C489     C      0.157410000000     0.849390000000     0.514410000000    -0.0539769  
C490     C      0.218030000000     0.880690000000     0.596920000000     0.32809    
C491     C      0.194440000000     0.903620000000     0.606810000000    -0.00241343 
C492     C      0.179390000000     0.875120000000     0.451130000000    -0.0540517  
C493     C      0.185170000000     0.837120000000     0.884450000000    -0.0368717  
C494     C      0.197250000000     0.837760000000     0.078500000000    -0.0297736  
C495     C      0.147810000000     0.825400000000     0.105850000000    -0.00538009 
C496     C      0.194730000000     0.842220000000     0.117980000000    -0.0066574  
C497     C      0.195470000000     0.832250000000     0.001230000000    -0.0536235  
C498     C      0.179130000000     0.860370000000     0.962950000000    -0.05288    
C499     C      0.182750000000     0.842700000000     0.019260000000     0.062907   
C500     C      0.153010000000     0.821080000000     0.067310000000    -0.0302527  
C501     C      0.193820000000     0.851840000000     0.945620000000     0.0627049  
C502     C      0.205040000000     0.881600000000     0.895770000000    -0.122017   
C503     C      0.201380000000     0.837310000000     0.965040000000    -0.0515188  
C504     C      0.218010000000     0.887990000000     0.859360000000     0.327343   
C505     C      0.197850000000     0.841510000000     0.847890000000     0.00059522 
C506     C      0.174240000000     0.856310000000     0.999490000000    -0.0506936  
C507     C      0.414840000000     0.957840000000     0.873430000000    -0.0354357  
C508     C      0.311320000000     0.950940000000     0.766690000000    -0.0309631  
C509     C      0.295390000000     0.904220000000     0.728970000000    -0.00638194 
C510     C      0.294300000000     0.944000000000     0.733820000000    -0.00519604 
C511     C      0.338150000000     0.942220000000     0.829110000000    -0.0542523  
C512     C      0.389210000000     0.968630000000     0.811510000000    -0.0529042  
C513     C      0.345440000000     0.947500000000     0.793060000000     0.0647412  
C514     C      0.312400000000     0.911920000000     0.761930000000    -0.0298882  
C515     C      0.381910000000     0.963290000000     0.847560000000     0.0632415  
C516     C      0.416370000000     0.997760000000     0.878660000000    -0.119323   
C517     C      0.356290000000     0.950100000000     0.856040000000    -0.0501846  
C518     C      0.432810000000     0.004560000000     0.912230000000     0.325119   
C519     C      0.430750000000     0.962860000000     0.907060000000    -0.00229412 
C520     C      0.371060000000     0.960790000000     0.784580000000    -0.0515642  
C521     C      0.840620000000     0.722620000000     0.817710000000    -0.0365704  
C522     C      0.838480000000     0.681470000000     0.002970000000    -0.0288896  
C523     C      0.882130000000     0.723590000000     0.035940000000    -0.00670036 
C524     C      0.849140000000     0.677160000000     0.037400000000    -0.0078629  
C525     C      0.829500000000     0.705060000000     0.939050000000    -0.0540714  
C526     C      0.858120000000     0.702930000000     0.882560000000    -0.0530299  
C527     C      0.851170000000     0.703470000000     0.946330000000     0.0639593  
C528     C      0.869430000000     0.725450000000     0.001740000000    -0.0294644  
C529     C      0.835510000000     0.702720000000     0.875300000000     0.0632153  
C530     C      0.822540000000     0.677330000000     0.821730000000    -0.122746   
C531     C      0.821630000000     0.704370000000     0.903780000000    -0.05087    
C532     C      0.809200000000     0.673680000000     0.785920000000     0.328076   
C533     C      0.827660000000     0.719990000000     0.781600000000    -0.00216111 
C534     C      0.865660000000     0.703020000000     0.917810000000    -0.0510039  
C535     C      0.874270000000     0.675250000000     0.509670000000    -0.0352278  
C536     C      0.903250000000     0.714470000000     0.321790000000    -0.0302404  
C537     C      0.882940000000     0.667480000000     0.283070000000    -0.00750189 
C538     C      0.913330000000     0.713790000000     0.284640000000    -0.00700232 
C539     C      0.866360000000     0.691310000000     0.387210000000    -0.0541775  
C540     C      0.900030000000     0.693720000000     0.439570000000    -0.0538278  
C541     C      0.888470000000     0.691390000000     0.376990000000     0.0629622  
C542     C      0.874010000000     0.669560000000     0.320300000000    -0.0297002  
C543     C      0.877220000000     0.692170000000     0.449830000000     0.0627358  
C544     C      0.883630000000     0.717700000000     0.501870000000    -0.1198     
C545     C      0.860710000000     0.691350000000     0.423320000000    -0.0515772  
C546     C      0.871070000000     0.717880000000     0.537040000000     0.325405   
C547     C      0.861540000000     0.672580000000     0.545760000000    -0.000521208
C548     C      0.905350000000     0.692950000000     0.403450000000    -0.0519881  
C549     C      0.733080000000     0.658860000000     0.610980000000    -0.0356454  
C550     C      0.620870000000     0.551640000000     0.534830000000    -0.0296039  
C551     C      0.583800000000     0.567760000000     0.528120000000    -0.00655007 
C552     C      0.593080000000     0.532020000000     0.531520000000    -0.00773878 
C553     C      0.655350000000     0.596830000000     0.598440000000    -0.0511558  
C554     C      0.693590000000     0.616660000000     0.547280000000    -0.0518274  
C555     C      0.649300000000     0.591260000000     0.562300000000     0.0630762  
C556     C      0.612120000000     0.585720000000     0.531430000000    -0.0301464  
C557     C      0.699740000000     0.621490000000     0.583530000000     0.0628587  
C558     C      0.732770000000     0.619850000000     0.616220000000    -0.120586   
C559     C      0.680330000000     0.611930000000     0.609080000000    -0.053885   
C560     C      0.761290000000     0.632680000000     0.620420000000     0.325769   
C561     C      0.761720000000     0.674300000000     0.614030000000     0.000574673
C562     C      0.668580000000     0.601800000000     0.536610000000    -0.0545589  
C563     C      0.088960000000     0.807590000000     0.701740000000    -0.0362791  
C564     C      0.954320000000     0.732620000000     0.719520000000    -0.0296585  
C565     C      0.932930000000     0.760620000000     0.686640000000    -0.00642436 
C566     C      0.925980000000     0.722690000000     0.722350000000    -0.00740277 
C567     C      0.008680000000     0.758800000000     0.717760000000    -0.0532794  
C568     C      0.035370000000     0.810500000000     0.727520000000    -0.0518175  
C569     C      0.995430000000     0.772010000000     0.718950000000     0.0627833  
C570     C      0.960390000000     0.767470000000     0.683000000000    -0.0295229  
C571     C      0.048580000000     0.797230000000     0.727560000000     0.0614621  
C572     C      0.087780000000     0.835080000000     0.746440000000    -0.120587   
C573     C      0.034670000000     0.771180000000     0.723150000000    -0.0509187  
C574     C      0.115080000000     0.844390000000     0.757430000000     0.324487   
C575     C      0.115490000000     0.813880000000     0.712480000000     0.000242453
C576     C      0.009230000000     0.797920000000     0.724450000000    -0.0507264  
Cu1      Cu     0.845810000000     0.717000000000     0.657200000000     0.854619   
Cu2      Cu     0.844040000000     0.676800000000     0.668080000000     0.877012   
Cu3      Cu     0.204030000000     0.896970000000     0.733930000000     0.874292   
Cu4      Cu     0.205010000000     0.858280000000     0.722510000000     0.855778   
Cu5      Cu     0.518190000000     0.039370000000     0.955400000000     0.865258   
Cu6      Cu     0.515770000000     0.998710000000     0.946480000000     0.85827    
Cu7      Cu     0.167880000000     0.328390000000     0.356170000000     0.860584   
Cu8      Cu     0.162480000000     0.286230000000     0.361810000000     0.855268   
Cu9      Cu     0.834360000000     0.171430000000     0.178700000000     0.863776   
Cu10     Cu     0.836300000000     0.132720000000     0.172280000000     0.858813   
Cu11     Cu     0.507420000000     0.513670000000     0.466600000000     0.839935   
Cu12     Cu     0.519270000000     0.481030000000     0.463520000000     0.861551   
Cu13     Cu     0.147230000000     0.289260000000     0.860590000000     0.847012   
Cu14     Cu     0.185620000000     0.330500000000     0.855630000000     0.865824   
Cu15     Cu     0.342780000000     0.156560000000     0.639270000000     0.861819   
Cu16     Cu     0.378170000000     0.199900000000     0.640540000000     0.857699   
Cu17     Cu     0.011710000000     0.502680000000     0.986030000000     0.876343   
Cu18     Cu     0.056220000000     0.535470000000     0.991460000000     0.857101   
Cu19     Cu     0.674490000000     0.827910000000     0.349560000000     0.855995   
Cu20     Cu     0.714620000000     0.867790000000     0.349200000000     0.859233   
Cu21     Cu     0.861080000000     0.675700000000     0.162550000000     0.862527   
Cu22     Cu     0.897960000000     0.718120000000     0.159570000000     0.854953   
Cu23     Cu     0.514430000000     0.016850000000     0.453480000000     0.863235   
Cu24     Cu     0.555520000000     0.054110000000     0.440960000000     0.858204   
Cu25     Cu     0.363480000000     0.173790000000     0.137680000000     0.858178   
Cu26     Cu     0.326850000000     0.180060000000     0.135260000000     0.875102   
Cu27     Cu     0.550740000000     0.514620000000     0.959360000000     0.857224   
Cu28     Cu     0.512140000000     0.517060000000     0.967320000000     0.858855   
Cu29     Cu     0.177590000000     0.827020000000     0.241480000000     0.867099   
Cu30     Cu     0.136550000000     0.824310000000     0.232000000000     0.836549   
Cu31     Cu     0.061400000000     0.538320000000     0.492120000000     0.843024   
Cu32     Cu     0.016990000000     0.527770000000     0.490730000000     0.84583    
Cu33     Cu     0.906220000000     0.198690000000     0.670900000000     0.855833   
Cu34     Cu     0.868470000000     0.203200000000     0.671490000000     0.864573   
Cu35     Cu     0.729560000000     0.868520000000     0.851680000000     0.86156    
Cu36     Cu     0.689220000000     0.867710000000     0.844710000000     0.855576   
F1       F      0.785630000000     0.942670000000     0.821160000000    -0.435827   
F2       F      0.900260000000     0.285380000000     0.675980000000    -0.433289   
F3       F      0.162690000000     0.751690000000     0.241390000000    -0.436001   
F4       F      0.632510000000     0.789060000000     0.854720000000    -0.43606    
F5       F      0.263520000000     0.105520000000     0.153620000000    -0.431488   
F6       F      0.453410000000     0.437700000000     0.981110000000    -0.43445    
F7       F      0.752480000000     0.867170000000     0.445510000000    -0.43539    
F8       F      0.635000000000     0.836010000000     0.245750000000    -0.436593   
F9       F      0.866390000000     0.767180000000     0.173950000000    -0.435632   
F10      F      0.609690000000     0.027890000000     0.472170000000    -0.436738   
F11      F      0.994250000000     0.509970000000     0.875680000000    -0.434097   
F12      F      0.988970000000     0.474910000000     0.094530000000    -0.432403   
F13      F      0.886820000000     0.627880000000     0.120860000000    -0.435399   
F14      F      0.316830000000     0.180500000000     0.021340000000    -0.434588   
F15      F      0.396040000000     0.201400000000     0.246410000000    -0.435045   
F16      F      0.371020000000     0.113580000000     0.589000000000    -0.43556    
F17      F      0.096700000000     0.493830000000     0.996690000000    -0.434222   
F18      F      0.344070000000     0.244140000000     0.670540000000    -0.435341   
F19      F      0.502350000000     0.446960000000     0.566110000000    -0.435554   
F20      F      0.588030000000     0.536480000000     0.065890000000    -0.434876   
F21      F      0.932420000000     0.214980000000     0.787770000000    -0.431604   
F22      F      0.840150000000     0.112040000000     0.280110000000    -0.436867   
F23      F      0.102480000000     0.306590000000     0.742150000000    -0.440457   
F24      F      0.219730000000     0.343090000000     0.958290000000    -0.435608   
F25      F      0.093590000000     0.317050000000     0.343160000000    -0.436489   
F26      F      0.240760000000     0.301060000000     0.352540000000    -0.435513   
F27      F      0.497190000000     0.034390000000     0.556330000000    -0.438983   
F28      F      0.485340000000     0.958540000000     0.044650000000    -0.435558   
F29      F      0.757810000000     0.151020000000     0.164180000000    -0.435647   
F30      F      0.225550000000     0.865120000000     0.612420000000    -0.436264   
F31      F      0.218780000000     0.909430000000     0.846670000000    -0.431579   
F32      F      0.449330000000     0.030090000000     0.911810000000    -0.435983   
F33      F      0.806830000000     0.652640000000     0.769200000000    -0.425992   
F34      F      0.886350000000     0.740390000000     0.554130000000    -0.437016   
F35      F      0.766430000000     0.620410000000     0.647290000000    -0.425231   
F36      F      0.126580000000     0.869840000000     0.763820000000    -0.430311   
H1       H      0.790940000000     0.029390000000     0.688450000000     0.0484443  
H2       H      0.734190000000     0.986990000000     0.795780000000     0.0381274  
H3       H      0.804510000000     0.989860000000     0.801470000000     0.0819478  
H4       H      0.808510000000     0.105140000000     0.657660000000     0.040385   
H5       H      0.733950000000     0.964960000000     0.849500000000     0.0372342  
H6       H      0.850190000000     0.076800000000     0.708800000000     0.0399757  
H7       H      0.784680000000     0.083430000000     0.710460000000     0.0375869  
H8       H      0.875660000000     0.120430000000     0.686570000000     0.0470516  
H9       H      0.771730000000     0.992230000000     0.726780000000     0.0449162  
H10      H      0.712330000000     0.943130000000     0.817700000000     0.0441589  
H11      H      0.814340000000     0.076440000000     0.781820000000     0.0437238  
H12      H      0.739560000000     0.966340000000     0.767870000000     0.0427567  
H13      H      0.809530000000     0.127610000000     0.688960000000     0.0444144  
H14      H      0.780640000000     0.966390000000     0.853040000000    -0.00600154 
H15      H      0.849260000000     0.099300000000     0.738480000000     0.0428313  
H16      H      0.810470000000     0.103160000000     0.739580000000     0.0401717  
H17      H      0.794740000000     0.039260000000     0.820180000000     0.0481608  
H18      H      0.780980000000     0.968290000000     0.770910000000     0.0850069  
H19      H      0.851100000000     0.100380000000     0.656350000000     0.0406863  
H20      H      0.987010000000     0.383560000000     0.539440000000     0.0437862  
H21      H      0.990340000000     0.319460000000     0.630960000000     0.0414663  
H22      H      0.925120000000     0.326140000000     0.632770000000     0.0785773  
H23      H      0.046590000000     0.472190000000     0.582350000000     0.0399949  
H24      H      0.958820000000     0.277530000000     0.621650000000     0.0405835  
H25      H      0.967750000000     0.419350000000     0.582260000000     0.0391882  
H26      H      0.041800000000     0.431360000000     0.573650000000     0.0380303  
H27      H      0.979850000000     0.457670000000     0.545930000000     0.0439873  
H28      H      0.966660000000     0.339870000000     0.559050000000     0.0485608  
H29      H      0.966380000000     0.279200000000     0.667970000000     0.0520324  
H30      H      0.001180000000     0.407680000000     0.649210000000     0.0490992  
H31      H      0.977170000000     0.322060000000     0.672550000000     0.047432   
H32      H      0.054310000000     0.469950000000     0.536800000000     0.0427248  
H33      H      0.906970000000     0.282950000000     0.623660000000    -0.00533314 
H34      H      0.980240000000     0.418960000000     0.538850000000     0.0404644  
H35      H      0.023150000000     0.425800000000     0.533870000000     0.0400743  
H36      H      0.981250000000     0.363980000000     0.668790000000     0.0476422  
H37      H      0.940610000000     0.326000000000     0.673500000000     0.0899752  
H38      H      0.995110000000     0.463690000000     0.588560000000     0.0396438  
H39      H      0.068650000000     0.626840000000     0.325340000000     0.0423329  
H40      H      0.066970000000     0.706110000000     0.272160000000     0.0379128  
H41      H      0.137740000000     0.709590000000     0.277230000000     0.0829578  
H42      H      0.041290000000     0.618570000000     0.454210000000     0.0398436  
H43      H      0.089180000000     0.721860000000     0.215590000000     0.0370978  
H44      H      0.109890000000     0.645190000000     0.398050000000     0.0383281  
H45      H      0.033670000000     0.627340000000     0.393900000000     0.0367281  
H46      H      0.098340000000     0.608090000000     0.436580000000     0.043578   
H47      H      0.080840000000     0.655650000000     0.274440000000     0.0477132  
H48      H      0.085740000000     0.745830000000     0.237390000000     0.0428512  
H49      H      0.090730000000     0.688490000000     0.397820000000     0.0473289  
H50      H      0.091780000000     0.731950000000     0.296280000000     0.0421897  
H51      H      0.021130000000     0.589560000000     0.432020000000     0.0430131  
H52      H      0.131610000000     0.723300000000     0.218660000000    -0.00651757 
H53      H      0.086940000000     0.616220000000     0.377660000000     0.0398716  
H54      H      0.042240000000     0.605770000000     0.375120000000     0.0386788  
H55      H      0.103330000000     0.717330000000     0.347030000000     0.043901   
H56      H      0.135050000000     0.734150000000     0.299170000000     0.0830887  
H57      H      0.092410000000     0.630890000000     0.457020000000     0.0401988  
H58      H      0.607430000000     0.663630000000     0.851410000000     0.0484489  
H59      H      0.683040000000     0.746560000000     0.892250000000     0.0386781  
H60      H      0.613270000000     0.744730000000     0.888270000000     0.0796109  
H61      H      0.596130000000     0.595420000000     0.896550000000     0.0426554  
H62      H      0.692800000000     0.787560000000     0.910560000000     0.0380863  
H63      H      0.560420000000     0.638550000000     0.921010000000     0.0389896  
H64      H      0.628160000000     0.636380000000     0.914660000000     0.0393559  
H65      H      0.538550000000     0.595220000000     0.947220000000     0.0451225  
H66      H      0.630240000000     0.709050000000     0.842820000000     0.0451859  
H67      H      0.704430000000     0.789800000000     0.866070000000     0.0438471  
H68      H      0.613740000000     0.674090000000     0.965540000000     0.0445908  
H69      H      0.670330000000     0.749010000000     0.850010000000     0.0429829  
H70      H      0.606100000000     0.592900000000     0.940610000000     0.049741   
H71      H      0.641850000000     0.786630000000     0.905930000000    -0.00579816 
H72      H      0.574720000000     0.635120000000     0.961090000000     0.0411104  
H73      H      0.613650000000     0.633900000000     0.957420000000     0.0426989  
H74      H      0.636110000000     0.719560000000     0.956970000000     0.0485964  
H75      H      0.630170000000     0.747450000000     0.847700000000     0.0859888  
H76      H      0.547510000000     0.596980000000     0.901330000000     0.04098    
H77      H      0.233190000000     0.976880000000     0.153140000000     0.0495051  
H78      H      0.305260000000     0.056280000000     0.201630000000     0.0395573  
H79      H      0.239520000000     0.061190000000     0.186270000000     0.0819198  
H80      H      0.225640000000     0.911370000000     0.205240000000     0.0420177  
H81      H      0.316550000000     0.098370000000     0.217420000000     0.0400252  
H82      H      0.180620000000     0.948520000000     0.210430000000     0.0390563  
H83      H      0.250560000000     0.952410000000     0.228130000000     0.0377789  
H84      H      0.158490000000     0.904100000000     0.235000000000     0.0421206  
H85      H      0.256590000000     0.022340000000     0.145450000000     0.0465465  
H86      H      0.331520000000     0.098910000000     0.176130000000     0.046764   
H87      H      0.228440000000     0.986230000000     0.266380000000     0.0436164  
H88      H      0.296170000000     0.059610000000     0.157050000000     0.0440291  
H89      H      0.227260000000     0.908040000000     0.252460000000     0.0430996  
H90      H      0.270990000000     0.102210000000     0.205530000000    -0.00474443 
H91      H      0.189910000000     0.945000000000     0.254720000000     0.0389334  
H92      H      0.229470000000     0.947150000000     0.264740000000     0.0384747  
H93      H      0.252150000000     0.031820000000     0.258790000000     0.0490888  
H94      H      0.257780000000     0.061980000000     0.148140000000     0.0873562  
H95      H      0.172320000000     0.908390000000     0.191700000000     0.0427086  
H96      H      0.424860000000     0.310880000000     0.997720000000     0.05087    
H97      H      0.504730000000     0.394890000000     0.010740000000     0.0404767  
H98      H      0.437260000000     0.396780000000     0.023280000000     0.0796813  
H99      H      0.414330000000     0.246570000000     0.061070000000     0.0451617  
H100     H      0.519380000000     0.437850000000     0.022110000000     0.0422735  
H101     H      0.384400000000     0.297010000000     0.068850000000     0.0417496  
H102     H      0.448480000000     0.288160000000     0.069950000000     0.039609   
H103     H      0.360370000000     0.257340000000     0.103940000000     0.0511987  
H104     H      0.447810000000     0.354760000000     0.978900000000     0.0464996  
H105     H      0.522930000000     0.435090000000     0.975210000000     0.0464088  
H106     H      0.442190000000     0.333690000000     0.107700000000     0.0450656  
H107     H      0.486670000000     0.394100000000     0.972300000000     0.0438853  
H108     H      0.424120000000     0.248520000000     0.106600000000     0.0489017  
H109     H      0.468040000000     0.439480000000     0.030260000000    -0.00475136 
H110     H      0.398850000000     0.296670000000     0.110630000000     0.0418541  
H111     H      0.435700000000     0.291900000000     0.111250000000     0.0421747  
H112     H      0.465300000000     0.377600000000     0.088860000000     0.0493069  
H113     H      0.448120000000     0.394650000000     0.979530000000     0.0878804  
H114     H      0.367870000000     0.253290000000     0.059120000000     0.0554368  
H115     H      0.708900000000     0.870630000000     0.620010000000     0.0437711  
H116     H      0.677000000000     0.800260000000     0.519850000000     0.0380595  
H117     H      0.752390000000     0.859940000000     0.515350000000     0.0830617  
H118     H      0.728500000000     0.832770000000     0.734090000000     0.0444339  
H119     H      0.697370000000     0.794960000000     0.467360000000     0.0379304  
H120     H      0.670200000000     0.831940000000     0.669960000000     0.0386735  
H121     H      0.746730000000     0.851400000000     0.677420000000     0.0399587  
H122     H      0.672400000000     0.848090000000     0.732790000000     0.0487225  
H123     H      0.711170000000     0.866090000000     0.555770000000     0.0450442  
H124     H      0.672920000000     0.801270000000     0.454290000000     0.0434908  
H125     H      0.711140000000     0.802760000000     0.637160000000     0.0484521  
H126     H      0.682900000000     0.830440000000     0.504650000000     0.0432893  
H127     H      0.748330000000     0.865780000000     0.740430000000     0.0505593  
H128     H      0.744920000000     0.833250000000     0.463750000000    -0.0058214  
H129     H      0.694120000000     0.864030000000     0.677210000000     0.0394339  
H130     H      0.737930000000     0.875070000000     0.681680000000     0.0434421  
H131     H      0.715420000000     0.799240000000     0.572450000000     0.0482317  
H132     H      0.727620000000     0.865900000000     0.501870000000     0.0837379  
H133     H      0.674140000000     0.820110000000     0.729560000000     0.0472861  
H134     H      0.654230000000     0.853960000000     0.061070000000     0.0485601  
H135     H      0.704420000000     0.907340000000     0.185590000000     0.037796   
H136     H      0.653110000000     0.829800000000     0.176180000000     0.0697471  
H137     H      0.669780000000     0.866540000000     0.966070000000     0.0472537  
H138     H      0.714300000000     0.893180000000     0.237550000000     0.042038   
H139     H      0.727340000000     0.865510000000     0.032420000000     0.037915   
H140     H      0.675440000000     0.891110000000     0.018160000000     0.0371074  
H141     H      0.741060000000     0.877700000000     0.967340000000     0.0459908  
H142     H      0.646180000000     0.851650000000     0.124750000000     0.0466964  
H143     H      0.692840000000     0.902640000000     0.252830000000     0.0427996  
H144     H      0.734110000000     0.896530000000     0.081210000000     0.0435126  
H145     H      0.671760000000     0.894140000000     0.196300000000     0.0486115  
H146     H      0.687210000000     0.898630000000     0.952810000000     0.0422398  
H147     H      0.660530000000     0.825690000000     0.234190000000    -0.00295722 
H148     H      0.737800000000     0.897410000000     0.019770000000     0.0392985  
H149     H      0.708480000000     0.911330000000     0.010370000000     0.0409853  
H150     H      0.726170000000     0.891690000000     0.145060000000     0.0465169  
H151     H      0.642710000000     0.851750000000     0.185320000000     0.0897084  
H152     H      0.711900000000     0.849750000000     0.975140000000     0.0420368  
H153     H      0.758040000000     0.779220000000     0.197590000000     0.0486552  
H154     H      0.777230000000     0.708650000000     0.222140000000     0.0385982  
H155     H      0.840190000000     0.781500000000     0.215890000000     0.0797727  
H156     H      0.703980000000     0.787060000000     0.261280000000     0.0424718  
H157     H      0.811880000000     0.702000000000     0.231590000000     0.0380644  
H158     H      0.784420000000     0.826590000000     0.264090000000     0.0404291  
H159     H      0.717130000000     0.756850000000     0.272080000000     0.037707   
H160     H      0.764680000000     0.846980000000     0.298980000000     0.0493302  
H161     H      0.782480000000     0.759430000000     0.179930000000     0.045347   
H162     H      0.801180000000     0.692300000000     0.186870000000     0.0442812  
H163     H      0.774950000000     0.774660000000     0.308180000000     0.0449029  
H164     H      0.788770000000     0.723320000000     0.179390000000     0.0431198  
H165     H      0.697040000000     0.777000000000     0.306880000000     0.0449944  
H166     H      0.859190000000     0.756670000000     0.225860000000    -0.00594464 
H167     H      0.772970000000     0.812910000000     0.307450000000     0.0436062  
H168     H      0.733990000000     0.772520000000     0.312070000000     0.0408197  
H169     H      0.799610000000     0.755090000000     0.290500000000     0.0485673  
H170     H      0.824390000000     0.764920000000     0.175910000000     0.0869496  
H171     H      0.751000000000     0.835770000000     0.255820000000     0.041899   
H172     H      0.617490000000     0.922210000000     0.376160000000     0.0459824  
H173     H      0.554190000000     0.933160000000     0.461320000000     0.0391011  
H174     H      0.625010000000     0.997060000000     0.442360000000     0.077238   
H175     H      0.635220000000     0.860940000000     0.440590000000     0.0401585  
H176     H      0.540830000000     0.960140000000     0.439390000000     0.0392922  
H177     H      0.672650000000     0.939390000000     0.424130000000     0.0397215  
H178     H      0.603280000000     0.871190000000     0.424580000000     0.0392956  
H179     H      0.694040000000     0.918130000000     0.396800000000     0.0481385  
H180     H      0.596730000000     0.946930000000     0.384690000000     0.0492835  
H181     H      0.539430000000     0.962700000000     0.486650000000     0.0449058  
H182     H      0.628230000000     0.921970000000     0.489960000000     0.048056   
H183     H      0.572220000000     0.953650000000     0.497200000000     0.0424778  
H184     H      0.624010000000     0.849280000000     0.396530000000     0.0487802  
H185     H      0.598730000000     0.012180000000     0.423340000000    -0.00359777 
H186     H      0.658900000000     0.924380000000     0.382230000000     0.0433289  
H187     H      0.618240000000     0.884450000000     0.382450000000     0.044819   
H188     H      0.607860000000     0.947150000000     0.498400000000     0.0450721  
H189     H      0.611840000000     0.989390000000     0.486530000000     0.0870918  
H190     H      0.681970000000     0.907050000000     0.440770000000     0.0429351  
H191     H      0.048230000000     0.591140000000     0.720730000000     0.0478271  
H192     H      0.081670000000     0.559080000000     0.815580000000     0.0394252  
H193     H      0.002700000000     0.513770000000     0.805420000000     0.0812478  
H194     H      0.077620000000     0.598990000000     0.609360000000     0.0388804  
H195     H      0.069700000000     0.527020000000     0.860040000000     0.0399398  
H196     H      0.009210000000     0.553010000000     0.659070000000     0.0387896  
H197     H      0.087580000000     0.578790000000     0.657450000000     0.0377405  
H198     H      0.007910000000     0.552880000000     0.592620000000     0.0439147  
H199     H      0.045030000000     0.577670000000     0.783090000000     0.0450125  
H200     H      0.077830000000     0.555710000000     0.882250000000     0.0465845  
H201     H      0.043910000000     0.522620000000     0.686050000000     0.0436271  
H202     H      0.061400000000     0.569470000000     0.834260000000     0.0428344  
H203     H      0.087400000000     0.578490000000     0.590640000000     0.0434161  
H204     H      0.013870000000     0.495080000000     0.853160000000    -0.00426233 
H205     H      0.019430000000     0.532730000000     0.640120000000     0.0416755  
H206     H      0.066780000000     0.548290000000     0.639050000000     0.0408385  
H207     H      0.042010000000     0.509740000000     0.748440000000     0.0491348  
H208     H      0.015870000000     0.543460000000     0.827840000000     0.0862176  
H209     H      0.028850000000     0.583260000000     0.610790000000     0.0394766  
H210     H      0.027130000000     0.463290000000     0.269030000000     0.0493693  
H211     H      0.066800000000     0.531870000000     0.170940000000     0.0400017  
H212     H      0.988310000000     0.482290000000     0.165430000000     0.0802767  
H213     H      0.050580000000     0.482610000000     0.376070000000     0.0406013  
H214     H      0.053280000000     0.545740000000     0.120090000000     0.039079   
H215     H      0.988220000000     0.479870000000     0.327260000000     0.0389142  
H216     H      0.067010000000     0.508380000000     0.322710000000     0.0380008  
H217     H      0.990540000000     0.486290000000     0.393380000000     0.0439551  
H218     H      0.027630000000     0.470160000000     0.204440000000     0.0472748  
H219     H      0.069680000000     0.530470000000     0.104220000000     0.0507075  
H220     H      0.028600000000     0.532780000000     0.288040000000     0.0424193  
H221     H      0.054670000000     0.500850000000     0.153200000000     0.0474101  
H222     H      0.070420000000     0.514740000000     0.388610000000     0.0436374  
H223     H      0.995990000000     0.508250000000     0.114440000000    -0.00594429 
H224     H      0.008790000000     0.511950000000     0.340060000000     0.0402693  
H225     H      0.055840000000     0.528960000000     0.337230000000     0.0403138  
H226     H      0.027740000000     0.538980000000     0.223490000000     0.0471771  
H227     H      0.009840000000     0.472330000000     0.150820000000     0.0881997  
H228     H      0.000350000000     0.464760000000     0.379260000000     0.0399108  
H229     H      0.978510000000     0.632640000000     0.998960000000     0.0492998  
H230     H      0.983220000000     0.685660000000     0.107180000000     0.0380847  
H231     H      0.919250000000     0.613150000000     0.104360000000     0.082424   
H232     H      0.033370000000     0.607220000000     0.975490000000     0.0424377  
H233     H      0.958060000000     0.682990000000     0.158320000000     0.0370701  
H234     H      0.959500000000     0.573100000000     0.015830000000     0.0424742  
H235     H      0.035400000000     0.630350000000     0.028950000000     0.0379774  
H236     H      0.973160000000     0.543640000000     0.995010000000     0.0546467  
H237     H      0.959260000000     0.651630000000     0.035130000000     0.045204   
H238     H      0.956320000000     0.703520000000     0.126060000000     0.0437321  
H239     H      0.993970000000     0.603620000000     0.094470000000     0.0444076  
H240     H      0.957990000000     0.679200000000     0.076550000000     0.0424344  
H241     H      0.050240000000     0.601060000000     0.009480000000     0.0450717  
H242     H      0.914070000000     0.633110000000     0.156330000000    -0.00631012 
H243     H      0.978680000000     0.568790000000     0.048420000000     0.0448632  
H244     H      0.023610000000     0.602740000000     0.056360000000     0.0405969  
H245     H      0.975430000000     0.623270000000     0.130740000000     0.0484282  
H246     H      0.920930000000     0.636950000000     0.074760000000     0.0862771  
H247     H      0.983750000000     0.570440000000     0.966590000000     0.0480661  
H248     H      0.400420000000     0.177440000000     0.872150000000     0.0482511  
H249     H      0.358440000000     0.130420000000     0.974540000000     0.0413035  
H250     H      0.321730000000     0.171880000000     0.953380000000     0.0814164  
H251     H      0.383620000000     0.139150000000     0.760230000000     0.0430039  
H252     H      0.324500000000     0.117670000000     0.017370000000     0.0417701  
H253     H      0.391320000000     0.200700000000     0.817350000000     0.0388813  
H254     H      0.349440000000     0.121960000000     0.803360000000     0.0408352  
H255     H      0.397030000000     0.206890000000     0.751580000000     0.0474564  
H256     H      0.387690000000     0.174290000000     0.934370000000     0.0449057  
H257     H      0.354030000000     0.134120000000     0.040160000000     0.0453448  
H258     H      0.322550000000     0.140850000000     0.839810000000     0.0452053  
H259     H      0.372910000000     0.162470000000     0.989630000000     0.0442397  
H260     H      0.354280000000     0.127200000000     0.737000000000     0.0490145  
H261     H      0.300620000000     0.144570000000     0.003940000000    -0.000175163
H262     H      0.361620000000     0.187200000000     0.794180000000     0.0441101  
H263     H      0.337000000000     0.140740000000     0.785190000000     0.0426693  
H264     H      0.309750000000     0.135340000000     0.902220000000     0.0511383  
H265     H      0.351590000000     0.186890000000     0.976150000000     0.0846936  
H266     H      0.410590000000     0.189220000000     0.769530000000     0.042512   
H267     H      0.385170000000     0.218210000000     0.428020000000     0.0443957  
H268     H      0.329670000000     0.214190000000     0.307740000000     0.0402972  
H269     H      0.379900000000     0.186220000000     0.316080000000     0.075123   
H270     H      0.306470000000     0.167720000000     0.518100000000     0.0437844  
H271     H      0.319710000000     0.189140000000     0.255960000000     0.0449088  
H272     H      0.364470000000     0.234600000000     0.475980000000     0.0401038  
H273     H      0.319620000000     0.155920000000     0.463730000000     0.039323   
H274     H      0.368010000000     0.229250000000     0.541780000000     0.051697   
H275     H      0.389760000000     0.219640000000     0.364120000000     0.0466248  
H276     H      0.339080000000     0.220560000000     0.241050000000     0.0447198  
H277     H      0.304350000000     0.176790000000     0.416830000000     0.0487751  
H278     H      0.362360000000     0.233070000000     0.296570000000     0.0465865  
H279     H      0.321520000000     0.149930000000     0.528900000000     0.0507431  
H280     H      0.363760000000     0.170260000000     0.259940000000    -0.00471021 
H281     H      0.377770000000     0.215030000000     0.486770000000     0.0420013  
H282     H      0.351540000000     0.169220000000     0.479300000000     0.0456574  
H283     H      0.309130000000     0.176010000000     0.351930000000     0.0491095  
H284     H      0.390610000000     0.218090000000     0.303330000000     0.0881015  
H285     H      0.336570000000     0.219050000000     0.527040000000     0.046196   
H286     H      0.453360000000     0.126400000000     0.446920000000     0.0492193  
H287     H      0.464440000000     0.177740000000     0.561650000000     0.0397285  
H288     H      0.404370000000     0.102970000000     0.562270000000     0.0830562  
H289     H      0.510460000000     0.109280000000     0.404380000000     0.0399467  
H290     H      0.442910000000     0.172030000000     0.617900000000     0.0396025  
H291     H      0.444930000000     0.068100000000     0.462420000000     0.0428547  
H292     H      0.515820000000     0.134730000000     0.457050000000     0.039236   
H293     H      0.463230000000     0.043650000000     0.436390000000     0.049187   
H294     H      0.434790000000     0.142210000000     0.490340000000     0.045035   
H295     H      0.436770000000     0.191940000000     0.589900000000     0.0448371  
H296     H      0.484420000000     0.104020000000     0.533160000000     0.0506861  
H297     H      0.436410000000     0.169670000000     0.536300000000     0.0426113  
H298     H      0.535470000000     0.111110000000     0.431600000000     0.0455478  
H299     H      0.401810000000     0.120880000000     0.618180000000    -0.00522076 
H300     H      0.470070000000     0.069830000000     0.489570000000     0.0555194  
H301     H      0.513100000000     0.110340000000     0.486430000000     0.0455624  
H302     H      0.466040000000     0.120010000000     0.576540000000     0.0512142  
H303     H      0.401510000000     0.126100000000     0.536550000000     0.0853084  
H304     H      0.466520000000     0.068370000000     0.407630000000     0.0391818  
H305     H      0.094960000000     0.378740000000     0.999850000000     0.0493921  
H306     H      0.030630000000     0.404820000000     0.958630000000     0.0418735  
H307     H      0.107130000000     0.461170000000     0.963620000000     0.0796251  
H308     H      0.104630000000     0.320630000000     0.949120000000     0.0416756  
H309     H      0.029680000000     0.441130000000     0.939610000000     0.0434691  
H310     H      0.144360000000     0.399400000000     0.937860000000     0.0411355  
H311     H      0.074000000000     0.332450000000     0.931420000000     0.0409667  
H312     H      0.165900000000     0.378120000000     0.911600000000     0.0519022  
H313     H      0.078050000000     0.406940000000     0.008210000000     0.0467663  
H314     H      0.018490000000     0.435220000000     0.984640000000     0.0520068  
H315     H      0.093960000000     0.387600000000     0.885740000000     0.0471463  
H316     H      0.045060000000     0.418420000000     0.000840000000     0.0460617  
H317     H      0.094930000000     0.310390000000     0.904030000000     0.0488408  
H318     H      0.087740000000     0.484120000000     0.944830000000    -0.00531097 
H319     H      0.132200000000     0.386000000000     0.894540000000     0.0439697  
H320     H      0.090760000000     0.346790000000     0.890760000000     0.046437   
H321     H      0.077500000000     0.416150000000     0.894130000000     0.0505109  
H322     H      0.088590000000     0.450080000000     0.003680000000     0.0884615  
H323     H      0.151480000000     0.365530000000     0.953930000000     0.0457627  
H324     H      0.230970000000     0.246640000000     0.700050000000     0.0483731  
H325     H      0.255700000000     0.179160000000     0.715550000000     0.039678   
H326     H      0.315850000000     0.253790000000     0.715080000000     0.0804413  
H327     H      0.176330000000     0.250120000000     0.769490000000     0.0411993  
H328     H      0.292310000000     0.175120000000     0.721810000000     0.0383647  
H329     H      0.256880000000     0.292980000000     0.766100000000     0.0399032  
H330     H      0.191980000000     0.221690000000     0.777780000000     0.0387189  
H331     H      0.236890000000     0.311990000000     0.803540000000     0.0475544  
H332     H      0.256960000000     0.229330000000     0.679110000000     0.0454966  
H333     H      0.281230000000     0.166560000000     0.676950000000     0.0447769  
H334     H      0.250750000000     0.241300000000     0.808910000000     0.0456616  
H335     H      0.266430000000     0.196020000000     0.674060000000     0.0433208  
H336     H      0.171770000000     0.240520000000     0.815390000000     0.0447907  
H337     H      0.336530000000     0.229990000000     0.720790000000    -0.0061522  
H338     H      0.247460000000     0.279330000000     0.809920000000     0.042958   
H339     H      0.209950000000     0.238110000000     0.816680000000     0.0414194  
H340     H      0.276760000000     0.223970000000     0.787980000000     0.0499079  
H341     H      0.300640000000     0.238810000000     0.673910000000     0.0868481  
H342     H      0.221970000000     0.300200000000     0.761200000000     0.0411394  
H343     H      0.468720000000     0.454250000000     0.757960000000     0.0461391  
H344     H      0.465610000000     0.495990000000     0.631900000000     0.038826   
H345     H      0.497590000000     0.449010000000     0.635600000000     0.0836229  
H346     H      0.506780000000     0.528630000000     0.837970000000     0.0408891  
H347     H      0.448120000000     0.465860000000     0.583350000000     0.0375333  
H348     H      0.535620000000     0.486750000000     0.781700000000     0.0397572  
H349     H      0.477010000000     0.503490000000     0.793250000000     0.0390878  
H350     H      0.540190000000     0.487210000000     0.848770000000     0.0453851  
H351     H      0.457040000000     0.444090000000     0.694990000000     0.0507186  
H352     H      0.467130000000     0.496590000000     0.565290000000     0.0427687  
H353     H      0.532280000000     0.524710000000     0.726780000000     0.0478762  
H354     H      0.497060000000     0.508180000000     0.614760000000     0.0423516  
H355     H      0.481210000000     0.502930000000     0.860410000000     0.049545   
H356     H      0.467710000000     0.436230000000     0.586140000000    -0.0049754  
H357     H      0.507110000000     0.465420000000     0.804810000000     0.0435571  
H358     H      0.473580000000     0.474950000000     0.811510000000     0.0432073  
H359     H      0.521590000000     0.513860000000     0.663830000000     0.0441382  
H360     H      0.516260000000     0.479960000000     0.617200000000     0.0833847  
H361     H      0.549680000000     0.517020000000     0.828910000000     0.0427346  
H362     H      0.586630000000     0.566430000000     0.248530000000     0.0478365  
H363     H      0.520850000000     0.537640000000     0.145220000000     0.0388153  
H364     H      0.580120000000     0.521800000000     0.136310000000     0.0776309  
H365     H      0.561450000000     0.561480000000     0.353290000000     0.0395967  
H366     H      0.510470000000     0.514000000000     0.091750000000     0.0425455  
H367     H      0.569930000000     0.506770000000     0.299490000000     0.0390242  
H368     H      0.538250000000     0.554040000000     0.297660000000     0.0369677  
H369     H      0.559720000000     0.498090000000     0.364520000000     0.0450901  
H370     H      0.583440000000     0.564830000000     0.183200000000     0.0458614  
H371     H      0.523700000000     0.545890000000     0.078420000000     0.0440119  
H372     H      0.519690000000     0.494100000000     0.255070000000     0.0435229  
H373     H      0.551390000000     0.560910000000     0.129450000000     0.043919   
H374     H      0.528350000000     0.546620000000     0.362570000000     0.0427375  
H375     H      0.558560000000     0.503900000000     0.082740000000    -0.00488331 
H376     H      0.536880000000     0.493370000000     0.309180000000     0.0407795  
H377     H      0.518170000000     0.521400000000     0.307980000000     0.0404939  
H378     H      0.517430000000     0.491810000000     0.189770000000     0.0483275  
H379     H      0.584990000000     0.552280000000     0.125670000000     0.0870517  
H380     H      0.581600000000     0.530230000000     0.354850000000     0.0397902  
H381     H      0.897000000000     0.210050000000     0.969970000000     0.0444504  
H382     H      0.856980000000     0.210000000000     0.848560000000     0.040287   
H383     H      0.910400000000     0.185890000000     0.849940000000     0.0742531  
H384     H      0.831950000000     0.130540000000     0.041020000000     0.0419112  
H385     H      0.853240000000     0.195900000000     0.789770000000     0.0421899  
H386     H      0.847110000000     0.202220000000     0.002360000000     0.0395298  
H387     H      0.863800000000     0.143620000000     0.995750000000     0.0379233  
H388     H      0.846200000000     0.198890000000     0.069830000000     0.0478213  
H389     H      0.908550000000     0.220080000000     0.907210000000     0.0470753  
H390     H      0.873630000000     0.228840000000     0.786360000000     0.0518013  
H391     H      0.826740000000     0.146030000000     0.938620000000     0.0474796  
H392     H      0.890140000000     0.231790000000     0.845280000000     0.0485866  
H393     H      0.861360000000     0.139380000000     0.062520000000     0.0435193  
H394     H      0.902340000000     0.180230000000     0.789360000000    -0.00438658 
H395     H      0.875400000000     0.205770000000     0.022530000000     0.0398844  
H396     H      0.884810000000     0.172120000000     0.018930000000     0.0408719  
H397     H      0.839070000000     0.155200000000     0.875570000000     0.0472741  
H398     H      0.919900000000     0.218480000000     0.848840000000     0.0899629  
H399     H      0.820800000000     0.173220000000     0.047060000000     0.0444264  
H400     H      0.894560000000     0.202170000000     0.427330000000     0.0475246  
H401     H      0.818310000000     0.170720000000     0.352310000000     0.0410213  
H402     H      0.844400000000     0.118810000000     0.350000000000     0.081982   
H403     H      0.882070000000     0.223620000000     0.534530000000     0.0411075  
H404     H      0.792700000000     0.137540000000     0.310510000000     0.0414386  
H405     H      0.897820000000     0.168960000000     0.494530000000     0.0383179  
H406     H      0.847620000000     0.197370000000     0.495270000000     0.0390829  
H407     H      0.905100000000     0.176910000000     0.560350000000     0.0436311  
H408     H      0.876950000000     0.185000000000     0.368470000000     0.0438712  
H409     H      0.810700000000     0.166290000000     0.286710000000     0.0494174  
H410     H      0.831020000000     0.139880000000     0.477650000000     0.0445378  
H411     H      0.846450000000     0.178910000000     0.327130000000     0.0439082  
H412     H      0.854340000000     0.205590000000     0.560740000000     0.0470052  
H413     H      0.809090000000     0.104680000000     0.308780000000    -0.00481971 
H414     H      0.869310000000     0.153070000000     0.520450000000     0.0412402  
H415     H      0.839950000000     0.169860000000     0.521250000000     0.0412891  
H416     H      0.812580000000     0.123560000000     0.418770000000     0.0502579  
H417     H      0.862230000000     0.147890000000     0.326190000000     0.0828325  
H418     H      0.915730000000     0.204800000000     0.534130000000     0.0414746  
H419     H      0.123310000000     0.313120000000     0.574120000000     0.0447487  
H420     H      0.167690000000     0.357540000000     0.688960000000     0.0394233  
H421     H      0.131820000000     0.280030000000     0.707210000000     0.0612988  
H422     H      0.178970000000     0.292440000000     0.491490000000     0.0439944  
H423     H      0.178110000000     0.351980000000     0.747110000000     0.0409899  
H424     H      0.171970000000     0.353390000000     0.533570000000     0.0382955  
H425     H      0.151690000000     0.277290000000     0.542580000000     0.0384972  
H426     H      0.166600000000     0.348490000000     0.466580000000     0.0471663  
H427     H      0.117270000000     0.314630000000     0.638530000000     0.0526161  
H428     H      0.152840000000     0.358020000000     0.754610000000     0.0472465  
H429     H      0.195480000000     0.319390000000     0.593490000000     0.048142   
H430     H      0.134360000000     0.341810000000     0.697390000000     0.068629   
H431     H      0.147460000000     0.272800000000     0.475780000000     0.0449512  
H432     H      0.112740000000     0.282010000000     0.759180000000     0.00113569 
H433     H      0.141420000000     0.329330000000     0.518780000000     0.0412424  
H434     H      0.129860000000     0.285690000000     0.523880000000     0.0415573  
H435     H      0.188720000000     0.319470000000     0.658250000000     0.0483989  
H436     H      0.110670000000     0.289100000000     0.688800000000     0.0858376  
H437     H      0.192840000000     0.346830000000     0.484270000000     0.0408395  
H438     H      0.142690000000     0.301050000000     0.121190000000     0.0482253  
H439     H      0.162150000000     0.258600000000     0.023030000000     0.0404791  
H440     H      0.218010000000     0.335260000000     0.027650000000     0.0832527  
H441     H      0.136860000000     0.269190000000     0.231480000000     0.0409839  
H442     H      0.191240000000     0.268070000000     0.973520000000     0.039319   
H443     H      0.183340000000     0.338220000000     0.175790000000     0.039618   
H444     H      0.158690000000     0.261030000000     0.184920000000     0.0398208  
H445     H      0.184590000000     0.342040000000     0.242620000000     0.046802   
H446     H      0.152090000000     0.300970000000     0.057690000000     0.0445899  
H447     H      0.160940000000     0.260500000000     0.956560000000     0.0444286  
H448     H      0.209380000000     0.298090000000     0.148570000000     0.0465867  
H449     H      0.153880000000     0.281200000000     0.007360000000     0.0434238  
H450     H      0.160780000000     0.264850000000     0.251960000000     0.0495027  
H451     H      0.226380000000     0.315980000000     0.976570000000    -0.00429254 
H452     H      0.203220000000     0.328210000000     0.196920000000     0.0438648  
H453     H      0.189050000000     0.283730000000     0.202330000000     0.0444047  
H454     H      0.217800000000     0.296180000000     0.085000000000     0.0513966  
H455     H      0.187390000000     0.327210000000     0.010530000000     0.0835537  
H456     H      0.153620000000     0.323270000000     0.224400000000     0.0456438  
H457     H      0.956020000000     0.214130000000     0.298020000000     0.0442231  
H458     H      0.040550000000     0.220570000000     0.326320000000     0.0393219  
H459     H      0.046730000000     0.291930000000     0.319960000000     0.082027   
H460     H      0.935700000000     0.181990000000     0.169780000000     0.0407204  
H461     H      0.062810000000     0.244640000000     0.378980000000     0.0381916  
H462     H      0.954290000000     0.247210000000     0.227530000000     0.0388545  
H463     H      0.956400000000     0.179700000000     0.223790000000     0.0398903  
H464     H      0.910890000000     0.225670000000     0.201910000000     0.0455083  
H465     H      0.991780000000     0.231750000000     0.339500000000     0.0481737  
H466     H      0.083530000000     0.239160000000     0.351590000000     0.044629   
H467     H      0.007210000000     0.238200000000     0.208850000000     0.0481592  
H468     H      0.063940000000     0.243530000000     0.296860000000     0.0431547  
H469     H      0.913210000000     0.157340000000     0.197800000000     0.0510091  
H470     H      0.067120000000     0.290050000000     0.374680000000    -0.00653466 
H471     H      0.932100000000     0.221120000000     0.254140000000     0.0414698  
H472     H      0.933370000000     0.181220000000     0.251920000000     0.0457553  
H473     H      0.042940000000     0.255290000000     0.250290000000     0.0448187  
H474     H      0.067560000000     0.286090000000     0.292940000000     0.0836686  
H475     H      0.934120000000     0.226140000000     0.172390000000     0.0404294  
H476     H      0.366040000000     0.399350000000     0.447570000000     0.0444496  
H477     H      0.293350000000     0.395260000000     0.379160000000     0.0382407  
H478     H      0.287770000000     0.324230000000     0.380580000000     0.0788851  
H479     H      0.436110000000     0.465550000000     0.371770000000     0.0386768  
H480     H      0.252500000000     0.368560000000     0.403120000000     0.0375994  
H481     H      0.407580000000     0.389920000000     0.398190000000     0.0397015  
H482     H      0.393360000000     0.450260000000     0.391640000000     0.0370614  
H483     H      0.451040000000     0.418820000000     0.421400000000     0.047508   
H484     H      0.320070000000     0.374270000000     0.443860000000     0.0485679  
H485     H      0.248590000000     0.375540000000     0.357960000000     0.0442535  
H486     H      0.370720000000     0.399790000000     0.332680000000     0.0481894  
H487     H      0.286740000000     0.377330000000     0.338660000000     0.0431892  
H488     H      0.436490000000     0.479720000000     0.413700000000     0.0433444  
H489     H      0.247730000000     0.315320000000     0.402660000000    -0.00517469 
H490     H      0.407930000000     0.405890000000     0.438650000000     0.0428173  
H491     H      0.399770000000     0.441590000000     0.434750000000     0.0409321  
H492     H      0.324740000000     0.374490000000     0.328980000000     0.0455204  
H493     H      0.284180000000     0.337150000000     0.339360000000     0.0861806  
H494     H      0.445860000000     0.425760000000     0.376630000000     0.0408113  
H495     H      0.522910000000     0.009160000000     0.726860000000     0.0476704  
H496     H      0.585090000000     0.072650000000     0.617630000000     0.0405698  
H497     H      0.505940000000     0.041240000000     0.625800000000     0.082678   
H498     H      0.528100000000     0.004340000000     0.822700000000     0.0447298  
H499     H      0.571450000000     0.089700000000     0.569430000000     0.0402927  
H500     H      0.538790000000     0.075810000000     0.783310000000     0.0396807  
H501     H      0.557200000000     0.018470000000     0.774540000000     0.0364116  
H502     H      0.544690000000     0.075040000000     0.851280000000     0.047631   
H503     H      0.524170000000     0.013900000000     0.662330000000     0.0469074  
H504     H      0.581840000000     0.069430000000     0.551120000000     0.0511721  
H505     H      0.574050000000     0.088360000000     0.738090000000     0.0435364  
H506     H      0.564800000000     0.041010000000     0.602770000000     0.0483428  
H507     H      0.558590000000     0.016810000000     0.842400000000     0.0405911  
H508     H      0.520490000000     0.069280000000     0.574870000000    -0.00962414 
H509     H      0.568520000000     0.080240000000     0.799160000000     0.0380531  
H510     H      0.578250000000     0.047790000000     0.795500000000     0.0399633  
H511     H      0.572870000000     0.093490000000     0.673690000000     0.0476185  
H512     H      0.518260000000     0.022630000000     0.606650000000     0.0858393  
H513     H      0.516200000000     0.051110000000     0.832010000000     0.0502717  
H514     H      0.543400000000     0.998670000000     0.215020000000     0.0481893  
H515     H      0.497420000000     0.030970000000     0.128550000000     0.0387659  
H516     H      0.481980000000     0.956400000000     0.115430000000     0.0829562  
H517     H      0.561440000000     0.028940000000     0.313000000000     0.0428816  
H518     H      0.468470000000     0.011640000000     0.078620000000     0.0410215  
H519     H      0.490280000000     0.967010000000     0.288790000000     0.0389858  
H520     H      0.546360000000     0.040600000000     0.260610000000     0.0377178  
H521     H      0.496840000000     0.978500000000     0.353610000000     0.0448473  
H522     H      0.531320000000     0.995370000000     0.152270000000     0.0452312  
H523     H      0.498120000000     0.036770000000     0.063500000000     0.0467389  
H524     H      0.476220000000     0.999910000000     0.244890000000     0.0439102  
H525     H      0.520910000000     0.025770000000     0.107680000000     0.0436233  
H526     H      0.553880000000     0.052600000000     0.325010000000     0.0445376  
H527     H      0.459700000000     0.965090000000     0.068910000000    -0.00496687 
H528     H      0.485660000000     0.992830000000     0.300170000000     0.0405672  
H529     H      0.518380000000     0.035770000000     0.283300000000     0.0413798  
H530     H      0.463030000000     0.994360000000     0.182430000000     0.048369   
H531     H      0.511850000000     0.981460000000     0.099910000000     0.0836412  
H532     H      0.523630000000     0.979900000000     0.332290000000     0.040332   
H533     H      0.629290000000     0.054350000000     0.092310000000     0.0436699  
H534     H      0.718080000000     0.060600000000     0.113610000000     0.0389696  
H535     H      0.713330000000     0.125540000000     0.134330000000     0.083278   
H536     H      0.612600000000     0.038190000000     0.959850000000     0.0401048  
H537     H      0.736430000000     0.076400000000     0.172110000000     0.0404804  
H538     H      0.633840000000     0.098470000000     0.031100000000     0.0389795  
H539     H      0.629430000000     0.028760000000     0.012310000000     0.0380848  
H540     H      0.591670000000     0.082850000000     0.002610000000     0.044711   
H541     H      0.663230000000     0.065610000000     0.135840000000     0.0489321  
H542     H      0.760650000000     0.080240000000     0.141580000000     0.0452638  
H543     H      0.684170000000     0.089720000000     0.008710000000     0.0477443  
H544     H      0.740430000000     0.089400000000     0.092210000000     0.0420541  
H545     H      0.587500000000     0.012550000000     0.983290000000     0.0475411  
H546     H      0.732790000000     0.117490000000     0.185400000000    -0.00541231 
H547     H      0.609160000000     0.070830000000     0.052200000000     0.0407266  
H548     H      0.606480000000     0.029930000000     0.041030000000     0.0419545  
H549     H      0.718100000000     0.101220000000     0.052250000000     0.0443738  
H550     H      0.737680000000     0.128090000000     0.104710000000     0.084044   
H551     H      0.615340000000     0.084830000000     0.972500000000     0.0409688  
H552     H      0.188300000000     0.885250000000     0.426930000000     0.0439287  
H553     H      0.172090000000     0.902300000000     0.561210000000     0.0406078  
H554     H      0.211710000000     0.863170000000     0.545360000000     0.0836727  
H555     H      0.112200000000     0.811300000000     0.368640000000     0.0394936  
H556     H      0.210000000000     0.922060000000     0.597880000000     0.0422485  
H557     H      0.179850000000     0.827250000000     0.418680000000     0.0398335  
H558     H      0.124030000000     0.847970000000     0.405500000000     0.0376233  
H559     H      0.177290000000     0.816570000000     0.354130000000     0.0478236  
H560     H      0.205900000000     0.904670000000     0.484860000000     0.0496094  
H561     H      0.182860000000     0.906910000000     0.626490000000     0.047043   
H562     H      0.131930000000     0.819180000000     0.480670000000     0.0475395  
H563     H      0.160810000000     0.872720000000     0.583550000000     0.0433353  
H564     H      0.121020000000     0.837880000000     0.340130000000     0.0425104  
H565     H      0.235120000000     0.897450000000     0.586630000000    -0.00506554 
H566     H      0.186650000000     0.853310000000     0.389870000000     0.0422885  
H567     H      0.153530000000     0.865760000000     0.382350000000     0.0404941  
H568     H      0.148850000000     0.839030000000     0.538600000000     0.0447673  
H569     H      0.184730000000     0.849510000000     0.574600000000     0.0844295  
H570     H      0.148380000000     0.797950000000     0.377670000000     0.0395403  
H571     H      0.163950000000     0.864030000000     0.012640000000     0.0485742  
H572     H      0.181980000000     0.818910000000     0.894910000000     0.0381393  
H573     H      0.216920000000     0.896750000000     0.914870000000     0.0827196  
H574     H      0.145600000000     0.842190000000     0.106620000000     0.042633   
H575     H      0.214890000000     0.839670000000     0.850610000000     0.0385181  
H576     H      0.216600000000     0.851650000000     0.069700000000     0.0388202  
H577     H      0.138810000000     0.821950000000     0.049790000000     0.0369165  
H578     H      0.206270000000     0.836350000000     0.133720000000     0.047874   
H579     H      0.172040000000     0.870850000000     0.948900000000     0.048969   
H580     H      0.184660000000     0.826680000000     0.829340000000     0.0432686  
H581     H      0.201660000000     0.820910000000     0.015030000000     0.0440712  
H582     H      0.166530000000     0.835920000000     0.881630000000     0.0477253  
H583     H      0.129660000000     0.809200000000     0.114600000000     0.042004   
H584     H      0.237700000000     0.892190000000     0.863190000000    -0.00895206 
H585     H      0.194700000000     0.818720000000     0.075390000000     0.0411813  
H586     H      0.150740000000     0.802120000000     0.064540000000     0.0419912  
H587     H      0.212140000000     0.830040000000     0.952040000000     0.0469425  
H588     H      0.186640000000     0.880880000000     0.892880000000     0.0901158  
H589     H      0.202900000000     0.862620000000     0.122350000000     0.0410642  
H590     H      0.376940000000     0.964940000000     0.756980000000     0.0507509  
H591     H      0.402100000000     0.937310000000     0.870960000000     0.0403146  
H592     H      0.404700000000     0.006880000000     0.880320000000     0.0825487  
H593     H      0.307490000000     0.910400000000     0.704770000000     0.0465587  
H594     H      0.417950000000     0.953710000000     0.930070000000     0.04281    
H595     H      0.323290000000     0.971630000000     0.767730000000     0.0433509  
H596     H      0.325170000000     0.904070000000     0.759490000000     0.0398385  
H597     H      0.281890000000     0.952210000000     0.736450000000     0.052318   
H598     H      0.408880000000     0.978700000000     0.804200000000     0.0459142  
H599     H      0.442420000000     0.953870000000     0.903790000000     0.04837    
H600     H      0.318480000000     0.931940000000     0.836410000000     0.0482977  
H601     H      0.427420000000     0.964420000000     0.849670000000     0.0436616  
H602     H      0.283760000000     0.883530000000     0.728130000000     0.0505109  
H603     H      0.420470000000     0.000070000000     0.936030000000    -0.004286   
H604     H      0.299370000000     0.944630000000     0.791080000000     0.0506116  
H605     H      0.300520000000     0.903750000000     0.786120000000     0.044015   
H606     H      0.350400000000     0.945780000000     0.883620000000     0.0507382  
H607     H      0.428730000000     0.005280000000     0.854770000000     0.084602   
H608     H      0.306350000000     0.952440000000     0.709900000000     0.0448496  
H609     H      0.882630000000     0.702280000000     0.922980000000     0.0495023  
H610     H      0.842270000000     0.739240000000     0.831700000000     0.0395007  
H611     H      0.810980000000     0.660700000000     0.838770000000     0.0861196  
H612     H      0.899570000000     0.723410000000     0.028570000000     0.0444111  
H613     H      0.809480000000     0.719360000000     0.786400000000     0.0401736  
H614     H      0.829680000000     0.663820000000     0.987270000000     0.0420394  
H615     H      0.883860000000     0.740890000000     0.985110000000     0.0393383  
H616     H      0.833160000000     0.663900000000     0.054400000000     0.050994   
H617     H      0.869580000000     0.702330000000     0.861090000000     0.0455407  
H618     H      0.839700000000     0.736770000000     0.765150000000     0.0437893  
H619     H      0.818320000000     0.706130000000     0.960530000000     0.0450434  
H620     H      0.859920000000     0.725780000000     0.813080000000     0.0428908  
H621     H      0.887790000000     0.740610000000     0.052270000000     0.0502397  
H622     H      0.789950000000     0.670310000000     0.791410000000    -0.00219286 
H623     H      0.823540000000     0.685950000000     0.009920000000     0.0415083  
H624     H      0.854610000000     0.730130000000     0.008580000000     0.0432837  
H625     H      0.804430000000     0.704670000000     0.898610000000     0.049231   
H626     H      0.841010000000     0.678580000000     0.816870000000     0.0853899  
H627     H      0.860230000000     0.668000000000     0.030600000000     0.0495224  
H628     H      0.922710000000     0.693650000000     0.395990000000     0.0473082  
H629     H      0.865790000000     0.656490000000     0.497000000000     0.0398913  
H630     H      0.882460000000     0.731160000000     0.483280000000     0.0787963  
H631     H      0.897350000000     0.661720000000     0.286000000000     0.0412433  
H632     H      0.840940000000     0.660090000000     0.542420000000     0.0416971  
H633     H      0.918690000000     0.729820000000     0.337310000000     0.0388828  
H634     H      0.867850000000     0.651700000000     0.334780000000     0.0387734  
H635     H      0.918580000000     0.731610000000     0.270680000000     0.0462768  
H636     H      0.913610000000     0.695300000000     0.459330000000     0.0443084  
H637     H      0.868070000000     0.663070000000     0.564580000000     0.047178   
H638     H      0.853380000000     0.691020000000     0.367430000000     0.0439279  
H639     H      0.894590000000     0.682020000000     0.514260000000     0.0419822  
H640     H      0.866860000000     0.652520000000     0.268050000000     0.0475751  
H641     H      0.852890000000     0.716930000000     0.530850000000    -0.00421076 
H642     H      0.887640000000     0.718640000000     0.319170000000     0.042667   
H643     H      0.857520000000     0.672310000000     0.317320000000     0.041043   
H644     H      0.843440000000     0.690870000000     0.430750000000     0.0488322  
H645     H      0.903910000000     0.724160000000     0.506420000000     0.0863805  
H646     H      0.930600000000     0.712410000000     0.287820000000     0.0406465  
H647     H      0.664370000000     0.598000000000     0.508480000000     0.0433167  
H648     H      0.726500000000     0.669620000000     0.594820000000     0.0386554  
H649     H      0.726100000000     0.601210000000     0.603850000000     0.0815168  
H650     H      0.574940000000     0.566070000000     0.554640000000     0.0407918  
H651     H      0.769670000000     0.681440000000     0.587070000000     0.0401445  
H652     H      0.630380000000     0.543490000000     0.550660000000     0.0410532  
H653     H      0.615100000000     0.603090000000     0.544720000000     0.0367178  
H654     H      0.591480000000     0.516320000000     0.515120000000     0.0496182  
H655     H      0.708320000000     0.623980000000     0.527330000000     0.0482879  
H656     H      0.766660000000     0.690820000000     0.631140000000     0.0454825  
H657     H      0.640690000000     0.588990000000     0.618460000000     0.0488882  
H658     H      0.724570000000     0.655970000000     0.638070000000     0.0446132  
H659     H      0.575880000000     0.575990000000     0.509320000000     0.0421066  
H660     H      0.769420000000     0.630370000000     0.595160000000    -0.00535664 
H661     H      0.629410000000     0.556200000000     0.507700000000     0.0404728  
H662     H      0.620620000000     0.590750000000     0.504290000000     0.039197   
H663     H      0.684540000000     0.615550000000     0.637230000000     0.0468526  
H664     H      0.723980000000     0.616810000000     0.643130000000     0.0908932  
H665     H      0.585680000000     0.524500000000     0.558560000000     0.046773   
H666     H      0.999630000000     0.808580000000     0.726100000000     0.0478584  
H667     H      0.079420000000     0.788460000000     0.690280000000     0.0367528  
H668     H      0.077670000000     0.836290000000     0.770310000000     0.0802658  
H669     H      0.931310000000     0.771980000000     0.708360000000     0.044366   
H670     H      0.114250000000     0.799210000000     0.730970000000     0.0401217  
H671     H      0.960350000000     0.727010000000     0.744200000000     0.0377302  
H672     H      0.971620000000     0.787960000000     0.678510000000     0.0389936  
H673     H      0.915920000000     0.701990000000     0.720280000000     0.0475727  
H674     H      0.044780000000     0.830530000000     0.730710000000     0.0477383  
H675     H      0.125750000000     0.813630000000     0.688150000000     0.0422046  
H676     H      0.999240000000     0.738860000000     0.713560000000     0.0430254  
H677     H      0.089820000000     0.820620000000     0.680470000000     0.0454007  
H678     H      0.926890000000     0.765440000000     0.661270000000     0.0537551  
H679     H      0.114960000000     0.835120000000     0.782960000000    -0.00563852 
H680     H      0.957830000000     0.723640000000     0.696150000000     0.0410451  
H681     H      0.962830000000     0.758120000000     0.659170000000     0.0464461  
H682     H      0.044080000000     0.760320000000     0.723710000000     0.0451066  
H683     H      0.087600000000     0.847720000000     0.725340000000     0.0870976  
H684     H      0.921930000000     0.727330000000     0.749320000000     0.0404664  
N1       N      0.746620000000     0.942030000000     0.826400000000    -0.194823   
N2       N      0.770850000000     0.991670000000     0.800040000000    -0.104047   
N3       N      0.815590000000     0.076940000000     0.708590000000    -0.11289    
N4       N      0.843850000000     0.126330000000     0.682750000000    -0.166317   
N5       N      0.930470000000     0.275230000000     0.656180000000    -0.190692   
N6       N      0.957660000000     0.322780000000     0.625600000000    -0.103025   
N7       N      0.004750000000     0.424560000000     0.582940000000    -0.11266    
N8       N      0.019330000000     0.469280000000     0.545150000000    -0.166883   
N9       N      0.123110000000     0.750420000000     0.237960000000    -0.196686   
N10      N      0.100990000000     0.705000000000     0.276300000000    -0.104146   
N11      N      0.072750000000     0.639550000000     0.396190000000    -0.113104   
N12      N      0.059350000000     0.598120000000     0.441180000000    -0.166928   
N13      N      0.672170000000     0.794480000000     0.871400000000    -0.193407   
N14      N      0.647490000000     0.744520000000     0.895620000000    -0.103613   
N15      N      0.594770000000     0.638690000000     0.912700000000    -0.112503   
N16      N      0.569300000000     0.588800000000     0.936680000000    -0.165029   
N17      N      0.300960000000     0.106630000000     0.172650000000    -0.1935     
N18      N      0.271180000000     0.057300000000     0.198650000000    -0.103636   
N19      N      0.216570000000     0.951420000000     0.213540000000    -0.112143   
N20      N      0.191530000000     0.900740000000     0.232270000000    -0.166312   
N21      N      0.493800000000     0.442870000000     0.990170000000    -0.192282   
N22      N      0.471230000000     0.395550000000     0.022870000000    -0.103171   
N23      N      0.416790000000     0.293090000000     0.063880000000    -0.111688   
N24      N      0.388640000000     0.246710000000     0.098450000000    -0.162728   
N25      N      0.711190000000     0.831320000000     0.446390000000    -0.195835   
N26      N      0.715410000000     0.828950000000     0.521330000000    -0.103762   
N27      N      0.707580000000     0.838210000000     0.671800000000    -0.112314   
N28      N      0.708570000000     0.851890000000     0.743750000000    -0.163939   
N29      N      0.678240000000     0.863340000000     0.251660000000    -0.190191   
N30      N      0.682310000000     0.867710000000     0.178850000000    -0.100889   
N31      N      0.698140000000     0.874440000000     0.027510000000    -0.111152   
N32      N      0.707940000000     0.879290000000     0.953900000000    -0.164776   
N33      N      0.836660000000     0.726150000000     0.192000000000    -0.19304    
N34      N      0.808640000000     0.745440000000     0.224770000000    -0.103542   
N35      N      0.751030000000     0.791060000000     0.263070000000    -0.112536   
N36      N      0.727720000000     0.814390000000     0.298570000000    -0.165016   
N37      N      0.568980000000     0.994640000000     0.460550000000    -0.191865   
N38      N      0.589200000000     0.964120000000     0.445510000000    -0.10309    
N39      N      0.637170000000     0.906110000000     0.428710000000    -0.112705   
N40      N      0.661320000000     0.881350000000     0.399870000000    -0.164899   
N41      N      0.038390000000     0.527950000000     0.881650000000    -0.193744   
N42      N      0.042630000000     0.534430000000     0.806740000000    -0.103683   
N43      N      0.048620000000     0.566820000000     0.662450000000    -0.11314    
N44      N      0.047690000000     0.566110000000     0.587200000000    -0.167229   
N45      N      0.029680000000     0.510690000000     0.095990000000    -0.191638   
N46      N      0.026930000000     0.509540000000     0.171340000000    -0.103651   
N47      N      0.027250000000     0.492480000000     0.321190000000    -0.112852   
N48      N      0.030470000000     0.499570000000     0.395870000000    -0.166853   
N49      N      0.922790000000     0.667580000000     0.132470000000    -0.194711   
N50      N      0.953140000000     0.648080000000     0.107930000000    -0.103865   
N51      N      0.996630000000     0.603970000000     0.021310000000    -0.112549   
N52      N      0.012810000000     0.570990000000     0.997590000000    -0.164486   
N53      N      0.333320000000     0.153760000000     0.034060000000    -0.195016   
N54      N      0.338680000000     0.149330000000     0.959980000000    -0.102945   
N55      N      0.371440000000     0.160910000000     0.814570000000    -0.112159   
N56      N      0.377230000000     0.167410000000     0.740030000000    -0.16582    
N57      N      0.356260000000     0.197880000000     0.239880000000    -0.19074    
N58      N      0.351300000000     0.196060000000     0.314140000000    -0.101997   
N59      N      0.340170000000     0.195770000000     0.466150000000    -0.111875   
N60      N      0.342740000000     0.189350000000     0.540440000000    -0.164338   
N61      N      0.405680000000     0.154650000000     0.598110000000    -0.194291   
N62      N      0.436660000000     0.139250000000     0.563320000000    -0.103355   
N63      N      0.479000000000     0.103100000000     0.460390000000    -0.112321   
N64      N      0.500590000000     0.075840000000     0.432250000000    -0.165968   
N65      N      0.055050000000     0.467240000000     0.976950000000    -0.191186   
N66      N      0.069300000000     0.432460000000     0.955400000000    -0.103046   
N67      N      0.108210000000     0.366650000000     0.938810000000    -0.112384   
N68      N      0.132320000000     0.341740000000     0.910520000000    -0.164615   
N69      N      0.315540000000     0.201550000000     0.683150000000    -0.193312   
N70      N      0.285570000000     0.216600000000     0.720910000000    -0.10342    
N71      N      0.224490000000     0.256710000000     0.766810000000    -0.112533   
N72      N      0.200720000000     0.278420000000     0.805130000000    -0.165714   
N73      N      0.482690000000     0.471980000000     0.562340000000    -0.196003   
N74      N      0.480460000000     0.471560000000     0.637920000000    -0.103743   
N75      N      0.508120000000     0.498060000000     0.783840000000    -0.112211   
N76      N      0.515840000000     0.502180000000     0.858310000000    -0.164373   
N77      N      0.546620000000     0.529460000000     0.068530000000    -0.191282   
N78      N      0.547910000000     0.525740000000     0.143100000000    -0.103078   
N79      N      0.556190000000     0.532210000000     0.295190000000    -0.112912   
N80      N      0.545500000000     0.523690000000     0.368930000000    -0.166664   
N81      N      0.891200000000     0.206900000000     0.778440000000    -0.189614   
N82      N      0.880220000000     0.193440000000     0.849200000000    -0.102826   
N83      N      0.852600000000     0.171110000000     0.995440000000    -0.112621   
N84      N      0.846970000000     0.164450000000     0.069730000000    -0.165978   
N85      N      0.822640000000     0.138900000000     0.280980000000    -0.196023   
N86      N      0.830640000000     0.144090000000     0.355420000000    -0.103787   
N87      N      0.873910000000     0.184590000000     0.490670000000    -0.112869   
N88      N      0.882890000000     0.194910000000     0.564070000000    -0.166816   
N89      N      0.143210000000     0.320210000000     0.762060000000    -0.190823   
N90      N      0.149680000000     0.317760000000     0.691270000000    -0.0981405  
N91      N      0.164880000000     0.316310000000     0.541260000000    -0.112351   
N92      N      0.163250000000     0.312120000000     0.466280000000    -0.164944   
N93      N      0.189870000000     0.299490000000     0.954080000000    -0.195955   
N94      N      0.190980000000     0.296510000000     0.029400000000    -0.103455   
N95      N      0.168360000000     0.298870000000     0.176760000000    -0.112243   
N96      N      0.167290000000     0.302500000000     0.251720000000    -0.163896   
N97      N      0.089830000000     0.276930000000     0.351600000000    -0.195719   
N98      N      0.040450000000     0.254900000000     0.323450000000    -0.103991   
N99      N      0.958590000000     0.215150000000     0.224860000000    -0.112906   
N100     N      0.909990000000     0.190540000000     0.194520000000    -0.165442   
N101     N      0.240430000000     0.337950000000     0.367900000000    -0.192938   
N102     N      0.291880000000     0.360330000000     0.385310000000    -0.103761   
N103     N      0.398560000000     0.418690000000     0.391060000000    -0.11291    
N104     N      0.447940000000     0.451830000000     0.414900000000    -0.166215   
N105     N      0.541890000000     0.055170000000     0.550650000000    -0.19718    
N106     N      0.545950000000     0.058840000000     0.625470000000    -0.103085   
N107     N      0.544060000000     0.044560000000     0.775920000000    -0.111105   
N108     N      0.540730000000     0.038590000000     0.849780000000    -0.165422   
N109     N      0.490380000000     0.999280000000     0.051180000000    -0.195584   
N110     N      0.488120000000     0.992870000000     0.125960000000    -0.103642   
N111     N      0.519450000000     0.002550000000     0.271200000000    -0.112652   
N112     N      0.528370000000     0.015430000000     0.343890000000    -0.166829   
N113     N      0.760530000000     0.113940000000     0.156730000000    -0.195329   
N114     N      0.712490000000     0.091300000000     0.124100000000    -0.103736   
N115     N      0.634980000000     0.065200000000     0.020730000000    -0.112977   
N116     N      0.588240000000     0.047820000000     0.986280000000    -0.165941   
N117     N      0.205200000000     0.889020000000     0.622140000000    -0.196326   
N118     N      0.192320000000     0.883610000000     0.548980000000    -0.103257   
N119     N      0.150970000000     0.836790000000     0.416420000000    -0.113011   
N120     N      0.147370000000     0.824530000000     0.343310000000    -0.166804   
N121     N      0.205400000000     0.866710000000     0.834260000000    -0.194149   
N122     N      0.201550000000     0.857540000000     0.908620000000    -0.102883   
N123     N      0.178510000000     0.840480000000     0.057500000000    -0.111544   
N124     N      0.168330000000     0.829360000000     0.130430000000    -0.165066   
N125     N      0.445910000000     0.989930000000     0.914230000000    -0.194151   
N126     N      0.400050000000     0.970520000000     0.876100000000    -0.103543   
N127     N      0.327260000000     0.939380000000     0.764450000000    -0.11218    
N128     N      0.280250000000     0.916650000000     0.729740000000    -0.16356    
N129     N      0.822720000000     0.696610000000     0.764130000000    -0.195581   
N130     N      0.825750000000     0.700040000000     0.839450000000    -0.103262   
N131     N      0.858720000000     0.701740000000     0.982280000000    -0.112045   
N132     N      0.865740000000     0.700700000000     0.056520000000    -0.163354   
N133     N      0.866010000000     0.696630000000     0.560710000000    -0.192755   
N134     N      0.870630000000     0.692500000000     0.486780000000    -0.103332   
N135     N      0.894580000000     0.690420000000     0.339980000000    -0.112977   
N136     N      0.894470000000     0.691830000000     0.264660000000    -0.166054   
N137     N      0.773050000000     0.659770000000     0.628120000000    -0.191327   
N138     N      0.725940000000     0.634970000000     0.593630000000    -0.103327   
N139     N      0.623540000000     0.574000000000     0.552720000000    -0.112549   
N140     N      0.578190000000     0.542660000000     0.516480000000    -0.165566   
N141     N      0.128860000000     0.838280000000     0.730560000000    -0.194397   
N142     N      0.075620000000     0.809100000000     0.733440000000    -0.102466   
N143     N      0.968210000000     0.760050000000     0.715780000000    -0.111587   
N144     N      0.917020000000     0.733960000000     0.695460000000    -0.164852   
O1       O      0.882350000000     0.733560000000     0.672210000000    -0.389923   
O2       O      0.809010000000     0.696380000000     0.642590000000    -0.397416   
O3       O      0.835540000000     0.715360000000     0.709260000000    -0.399843   
O4       O      0.856290000000     0.714920000000     0.606580000000    -0.364466   
O5       O      0.856090000000     0.679310000000     0.616850000000    -0.398006   
O6       O      0.831660000000     0.677960000000     0.717830000000    -0.348723   
O7       O      0.808260000000     0.660260000000     0.649860000000    -0.352287   
O8       O      0.880130000000     0.697360000000     0.685610000000    -0.393886   
O9       O      0.166110000000     0.875090000000     0.736800000000    -0.351882   
O10      O      0.242080000000     0.914970000000     0.730820000000    -0.3899     
O11      O      0.201740000000     0.899450000000     0.679870000000    -0.396608   
O12      O      0.206520000000     0.890640000000     0.786530000000    -0.346952   
O13      O      0.202960000000     0.853530000000     0.776390000000    -0.401246   
O14      O      0.207080000000     0.866900000000     0.670030000000    -0.356005   
O15      O      0.243030000000     0.879550000000     0.725810000000    -0.388426   
O16      O      0.166880000000     0.840930000000     0.720040000000    -0.399883   
O17      O      0.482190000000     0.022710000000     0.937300000000    -0.353454   
O18      O      0.554010000000     0.052000000000     0.972590000000    -0.397095   
O19      O      0.530360000000     0.047250000000     0.904430000000    -0.394887   
O20      O      0.505450000000     0.027550000000     0.005350000000    -0.403252   
O21      O      0.502160000000     0.990410000000     0.997190000000    -0.352526   
O22      O      0.529580000000     0.011110000000     0.896660000000    -0.396286   
O23      O      0.551390000000     0.015000000000     0.965480000000    -0.394859   
O24      O      0.480370000000     0.986300000000     0.928180000000    -0.397513   
O25      O      0.205310000000     0.341510000000     0.359960000000    -0.403081   
O26      O      0.129770000000     0.311130000000     0.353150000000    -0.352907   
O27      O      0.165990000000     0.328520000000     0.410320000000    -0.393126   
O28      O      0.169620000000     0.324310000000     0.302540000000    -0.390411   
O29      O      0.164160000000     0.286000000000     0.307680000000    -0.389468   
O30      O      0.160980000000     0.290380000000     0.415410000000    -0.394661   
O31      O      0.124950000000     0.273150000000     0.358340000000    -0.40215    
O32      O      0.200700000000     0.303530000000     0.364690000000    -0.358654   
O33      O      0.797040000000     0.150350000000     0.169390000000    -0.354121   
O34      O      0.872040000000     0.188900000000     0.187530000000    -0.397467   
O35      O      0.840540000000     0.175980000000     0.125230000000    -0.393365   
O36      O      0.827900000000     0.162790000000     0.231360000000    -0.398205   
O37      O      0.829850000000     0.127960000000     0.225550000000    -0.3562     
O38      O      0.842890000000     0.141320000000     0.119730000000    -0.399382   
O39      O      0.873690000000     0.153870000000     0.182290000000    -0.38948    
O40      O      0.798560000000     0.115390000000     0.162870000000    -0.397985   
O41      O      0.541050000000     0.535270000000     0.491040000000    -0.396804   
O42      O      0.475090000000     0.489080000000     0.441690000000    -0.398272   
O43      O      0.491750000000     0.498730000000     0.514810000000    -0.400709   
O44      O      0.524090000000     0.525270000000     0.418120000000    -0.39732    
O45      O      0.535170000000     0.496060000000     0.415530000000    -0.397081   
O46      O      0.502650000000     0.469460000000     0.511930000000    -0.353258   
O47      O      0.485550000000     0.459410000000     0.439050000000    -0.392831   
O48      O      0.551560000000     0.505630000000     0.488630000000    -0.390528   
O49      O      0.131460000000     0.307400000000     0.885460000000    -0.391438   
O50      O      0.166660000000     0.275240000000     0.835120000000    -0.396401   
O51      O      0.161210000000     0.285800000000     0.908170000000    -0.401076   
O52      O      0.137200000000     0.296600000000     0.812370000000    -0.392039   
O53      O      0.171490000000     0.334170000000     0.808330000000    -0.399185   
O54      O      0.195850000000     0.322970000000     0.903540000000    -0.354135   
O55      O      0.201160000000     0.312560000000     0.829990000000    -0.395467   
O56      O      0.166480000000     0.344400000000     0.881790000000    -0.390525   
O57      O      0.321690000000     0.170460000000     0.660300000000    -0.40021    
O58      O      0.367210000000     0.146950000000     0.618690000000    -0.354747   
O59      O      0.353470000000     0.152910000000     0.689170000000    -0.394331   
O60      O      0.335790000000     0.164240000000     0.589190000000    -0.39035    
O61      O      0.367360000000     0.203580000000     0.590660000000    -0.388879   
O62      O      0.385080000000     0.192240000000     0.690720000000    -0.394304   
O63      O      0.399240000000     0.185960000000     0.619400000000    -0.399667   
O64      O      0.353790000000     0.209490000000     0.661420000000    -0.358402   
O65      O      0.003370000000     0.530380000000     0.990710000000    -0.387753   
O66      O      0.024390000000     0.478060000000     0.981670000000    -0.392819   
O67      O      0.011720000000     0.499950000000     0.040130000000    -0.355117   
O68      O      0.016000000000     0.508850000000     0.932510000000    -0.358372   
O69      O      0.056160000000     0.538440000000     0.937480000000    -0.399733   
O70      O      0.052030000000     0.529150000000     0.044920000000    -0.394886   
O71      O      0.064560000000     0.507780000000     0.986010000000    -0.358809   
O72      O      0.043490000000     0.560050000000     0.996130000000    -0.396105   
O73      O      0.659410000000     0.846970000000     0.373320000000    -0.391432   
O74      O      0.693450000000     0.812710000000     0.325870000000    -0.395699   
O75      O      0.684780000000     0.821850000000     0.398320000000    -0.403992   
O76      O      0.668190000000     0.837790000000     0.300620000000    -0.372908   
O77      O      0.703620000000     0.874630000000     0.301270000000    -0.399396   
O78      O      0.721680000000     0.857050000000     0.397190000000    -0.351842   
O79      O      0.729360000000     0.849020000000     0.323760000000    -0.391813   
O80      O      0.695960000000     0.882660000000     0.374540000000    -0.392563   
O81      O      0.841130000000     0.692470000000     0.177100000000    -0.400648   
O82      O      0.884560000000     0.663160000000     0.147920000000    -0.355942   
O83      O      0.870520000000     0.675160000000     0.214360000000    -0.395845   
O84      O      0.855520000000     0.680060000000     0.110230000000    -0.389403   
O85      O      0.888690000000     0.718460000000     0.107440000000    -0.387917   
O86      O      0.903460000000     0.713710000000     0.212030000000    -0.394765   
O87      O      0.917970000000     0.701330000000     0.145430000000    -0.400952   
O88      O      0.874500000000     0.730700000000     0.174160000000    -0.359398   
O89      O      0.533830000000     0.998730000000     0.462960000000    -0.399302   
O90      O      0.499070000000     0.038520000000     0.442450000000    -0.390336   
O91      O      0.513330000000     0.008330000000     0.401140000000    -0.400933   
O92      O      0.519520000000     0.029110000000     0.504610000000    -0.357572   
O93      O      0.558010000000     0.060950000000     0.494180000000    -0.395587   
O94      O      0.549050000000     0.043400000000     0.388950000000    -0.396702   
O95      O      0.536320000000     0.072770000000     0.434720000000    -0.396455   
O96      O      0.570640000000     0.031850000000     0.448550000000    -0.36672    
O97      O      0.339480000000     0.138820000000     0.155450000000    -0.39998    
O98      O      0.383960000000     0.209610000000     0.119490000000    -0.388666   
O99      O      0.368060000000     0.186020000000     0.188780000000    -0.363184   
O100     O      0.355000000000     0.161430000000     0.086640000000    -0.40202    
O101     O      0.322770000000     0.168380000000     0.083650000000    -0.350892   
O102     O      0.334890000000     0.191560000000     0.186950000000    -0.39753    
O103     O      0.350780000000     0.215150000000     0.118420000000    -0.389275   
O104     O      0.306230000000     0.144090000000     0.152260000000    -0.355953   
O105     O      0.529680000000     0.477900000000     0.971600000000    -0.398992   
O106     O      0.568190000000     0.551720000000     0.947940000000    -0.390729   
O107     O      0.556960000000     0.522340000000     0.012420000000    -0.35893    
O108     O      0.540500000000     0.506780000000     0.907160000000    -0.394159   
O109     O      0.505730000000     0.509120000000     0.914480000000    -0.39047    
O110     O      0.522400000000     0.525100000000     0.019330000000    -0.399007   
O111     O      0.533210000000     0.553750000000     0.954660000000    -0.39725    
O112     O      0.494810000000     0.480000000000     0.979180000000    -0.359763   
O113     O      0.192540000000     0.864610000000     0.241970000000    -0.399002   
O114     O      0.158690000000     0.789170000000     0.239700000000    -0.354022   
O115     O      0.181150000000     0.828630000000     0.187660000000    -0.3935     
O116     O      0.170150000000     0.825290000000     0.294460000000    -0.395742   
O117     O      0.134230000000     0.825330000000     0.286140000000    -0.395655   
O118     O      0.143040000000     0.823750000000     0.178780000000    -0.394343   
O119     O      0.121430000000     0.786640000000     0.234000000000    -0.401294   
O120     O      0.155750000000     0.862230000000     0.230810000000    -0.396708   
O121     O      0.069320000000     0.570480000000     0.466900000000    -0.397917   
O122     O      0.049150000000     0.505070000000     0.517420000000    -0.396452   
O123     O      0.054850000000     0.521010000000     0.444020000000    -0.397311   
O124     O      0.063670000000     0.554810000000     0.539970000000    -0.397145   
O125     O      0.023630000000     0.545480000000     0.538460000000    -0.397867   
O126     O      0.014560000000     0.510830000000     0.443240000000    -0.39742    
O127     O      0.009180000000     0.496010000000     0.516960000000    -0.398384   
O128     O      0.029190000000     0.560810000000     0.464980000000    -0.397447   
O129     O      0.926320000000     0.236490000000     0.664920000000    -0.391937   
O130     O      0.882520000000     0.161490000000     0.676670000000    -0.396341   
O131     O      0.901630000000     0.194850000000     0.617070000000    -0.397528   
O132     O      0.906800000000     0.202530000000     0.724860000000    -0.363532   
O133     O      0.872910000000     0.206930000000     0.725100000000    -0.396399   
O134     O      0.867940000000     0.199560000000     0.617760000000    -0.399084   
O135     O      0.848380000000     0.165400000000     0.677130000000    -0.398371   
O136     O      0.892100000000     0.240300000000     0.665600000000    -0.362805   
O137     O      0.708860000000     0.831230000000     0.860900000000    -0.402049   
O138     O      0.746300000000     0.905770000000     0.841700000000    -0.354134   
O139     O      0.727060000000     0.874510000000     0.904390000000    -0.395095   
O140     O      0.727940000000     0.862010000000     0.798440000000    -0.390505   
O141     O      0.690510000000     0.859230000000     0.792530000000    -0.388808   
O142     O      0.691770000000     0.876030000000     0.897600000000    -0.393457   
O143     O      0.709900000000     0.904680000000     0.833230000000    -0.401945   
O144     O      0.672490000000     0.830850000000     0.857120000000    -0.357174   


