data_structure

_audit_creation_method RASPA-1.0
_audit_creation_date 2023-5-23
_audit_author_name 'Poobodin Mano'

_cell_length_a    28.5083
_cell_length_b    28.2753
_cell_length_c    26.3289
_cell_angle_alpha 90.0002
_cell_angle_beta  90.0001
_cell_angle_gamma 89.9978
_cell_volume      21223.2

_symmetry_cell_setting          triclinic
_symmetry_space_group_name_Hall 'P 1'
_symmetry_space_group_name_H-M  'P 1'
_symmetry_Int_Tables_number     1

_symmetry_equiv_pos_as_xyz 'x,y,z'

loop_
_atom_site_label
_atom_site_type_symbol
_atom_site_fract_x
_atom_site_fract_y
_atom_site_fract_z
_atom_site_charge
C1       C      0.058220000000     0.588800000000     0.028100000000     0.487926   
C2       C      0.028600000000     0.416820000000     0.073450000000     0.482986   
C3       C      0.131330000000     0.483110000000     0.039580000000     0.491972   
C4       C      0.959040000000     0.520050000000     0.065300000000     0.488047   
C5       C      0.957360000000     0.601000000000     0.542880000000     0.490073   
C6       C      0.042480000000     0.443550000000     0.546980000000     0.487454   
C7       C      0.078990000000     0.564200000000     0.539950000000     0.488417   
C8       C      0.921310000000     0.480610000000     0.545470000000     0.483343   
C9       C      0.529230000000     0.626710000000     0.056090000000     0.488279   
C10      C      0.550690000000     0.450020000000     0.032580000000     0.485239   
C11      C      0.626960000000     0.547160000000     0.060080000000     0.488294   
C12      C      0.453270000000     0.527700000000     0.025290000000     0.491061   
C13      C      0.523760000000     0.647100000000     0.561310000000     0.485697   
C14      C      0.493130000000     0.474100000000     0.522370000000     0.486928   
C15      C      0.595500000000     0.544780000000     0.540910000000     0.483256   
C16      C      0.420080000000     0.576700000000     0.544740000000     0.486624   
C17      C      0.008490000000     0.924650000000     0.994860000000     0.412248   
C18      C      0.038510000000     0.088920000000     0.087630000000     0.413677   
C19      C      0.084200000000     0.964630000000     0.102630000000     0.413728   
C20      C      0.962150000000     0.050090000000     0.980620000000     0.413553   
C21      C      0.009570000000     0.932040000000     0.536760000000     0.413609   
C22      C      0.053430000000     0.114490000000     0.543360000000     0.413592   
C23      C      0.007810000000     0.025390000000     0.636920000000     0.41239    
C24      C      0.056390000000     0.020650000000     0.441890000000     0.412967   
C25      C      0.477540000000     0.966800000000     0.075960000000     0.412189   
C26      C      0.452750000000     0.135330000000     0.990650000000     0.41441    
C27      C      0.465210000000     0.090340000000     0.125770000000     0.413747   
C28      C      0.465000000000     0.011980000000     0.942170000000     0.41229    
C29      C      0.460250000000     0.976940000000     0.587040000000     0.414169   
C30      C      0.460850000000     0.140590000000     0.487610000000     0.413236   
C31      C      0.458430000000     0.103680000000     0.625750000000     0.413581   
C32      C      0.462940000000     0.013640000000     0.448540000000     0.413348   
C33      C      0.506750000000     0.013430000000     0.769800000000    -0.0450725  
C34      C      0.505940000000     0.988980000000     0.862280000000    -0.0202833  
C35      C      0.500920000000     0.096060000000     0.744740000000     0.0193035  
C36      C      0.504210000000     0.026260000000     0.821280000000     0.0188716  
C37      C      0.498450000000     0.133130000000     0.703570000000    -0.0200606  
C38      C      0.500790000000     0.074380000000     0.834150000000    -0.0390817  
C39      C      0.498850000000     0.108940000000     0.796230000000    -0.0451977  
C40      C      0.505370000000     0.048020000000     0.731910000000    -0.0396343  
C41      C      0.510320000000     0.002460000000     0.278660000000    -0.0456635  
C42      C      0.506550000000     0.984310000000     0.372770000000    -0.0206063  
C43      C      0.509040000000     0.083420000000     0.247400000000     0.0175012  
C44      C      0.508250000000     0.018770000000     0.329020000000     0.0188311  
C45      C      0.507360000000     0.117540000000     0.203370000000    -0.0201985  
C46      C      0.507650000000     0.067740000000     0.338220000000    -0.039659   
C47      C      0.507740000000     0.099780000000     0.297760000000    -0.0445134  
C48      C      0.510930000000     0.034510000000     0.238240000000    -0.0387371  
C49      C      0.918850000000     0.033760000000     0.795090000000    -0.0436167  
C50      C      0.948670000000     0.038350000000     0.704550000000    -0.0194546  
C51      C      0.948520000000     0.086610000000     0.860690000000     0.0234697  
C52      C      0.949430000000     0.054000000000     0.759350000000     0.0149684  
C53      C      0.945020000000     0.108670000000     0.912780000000    -0.0186841  
C54      C      0.979360000000     0.090750000000     0.774620000000    -0.0394487  
C55      C      0.978960000000     0.106800000000     0.824770000000    -0.0451207  
C56      C      0.918040000000     0.050220000000     0.845210000000    -0.0389065  
C57      C      0.045350000000     0.932160000000     0.250060000000    -0.0429908  
C58      C      0.101940000000     0.915660000000     0.178480000000    -0.017123   
C59      C      0.052480000000     0.001870000000     0.303490000000     0.0161735  
C60      C      0.083730000000     0.947010000000     0.220610000000     0.025829   
C61      C      0.037840000000     0.029440000000     0.349910000000    -0.0195712  
C62      C      0.106420000000     0.989600000000     0.233080000000    -0.0379689  
C63      C      0.090780000000     0.016890000000     0.274040000000    -0.0427486  
C64      C      0.030010000000     0.959220000000     0.291260000000    -0.0400022  
C65      C      0.523860000000     0.332680000000     0.484380000000    -0.0401079  
C66      C      0.487220000000     0.410600000000     0.458420000000    -0.0142302  
C67      C      0.498440000000     0.258290000000     0.447140000000     0.0171408  
C68      C      0.490190000000     0.357350000000     0.455780000000     0.0124171  
C69      C      0.502790000000     0.205320000000     0.442340000000    -0.0196918  
C70      C      0.461090000000     0.332100000000     0.422370000000    -0.042757   
C71      C      0.465300000000     0.283030000000     0.417940000000    -0.0427788  
C72      C      0.527560000000     0.283510000000     0.480550000000    -0.0434311  
C73      C      0.550530000000     0.858050000000     0.579400000000    -0.0428678  
C74      C      0.501270000000     0.912480000000     0.634000000000    -0.0194477  
C75      C      0.524480000000     0.778390000000     0.558980000000     0.0124387  
C76      C      0.508960000000     0.866280000000     0.606670000000     0.0199135  
C77      C      0.532820000000     0.730730000000     0.534840000000    -0.0142716  
C78      C      0.475070000000     0.830300000000     0.609480000000    -0.0425348  
C79      C      0.482580000000     0.786920000000     0.585450000000    -0.040482   
C80      C      0.558290000000     0.814400000000     0.555840000000    -0.0419646  
C81      C      0.482380000000     0.322930000000     0.012030000000    -0.0395594  
C82      C      0.543010000000     0.367040000000     0.062930000000    -0.0154213  
C83      C      0.497980000000     0.244750000000     0.977620000000     0.0214048  
C84      C      0.526220000000     0.322990000000     0.036320000000     0.0137697  
C85      C      0.484040000000     0.204500000000     0.943390000000    -0.0182105  
C86      C      0.555250000000     0.283030000000     0.032340000000    -0.0422126  
C87      C      0.541100000000     0.244060000000     0.003420000000    -0.0411412  
C88      C      0.468350000000     0.284100000000     0.982940000000    -0.0434163  
C89      C      0.559470000000     0.817100000000     0.104910000000    -0.0466175  
C90      C      0.529540000000     0.900980000000     0.103860000000    -0.0208498  
C91      C      0.533120000000     0.758350000000     0.043810000000     0.0120406  
C92      C      0.530070000000     0.851240000000     0.082830000000     0.0165011  
C93      C      0.534720000000     0.708500000000     0.023410000000    -0.0137252  
C94      C      0.503300000000     0.838810000000     0.039930000000    -0.0403869  
C95      C      0.504510000000     0.792660000000     0.020920000000    -0.042839   
C96      C      0.561220000000     0.771190000000     0.085390000000    -0.0402356  
C97      C      0.462480000000     0.551620000000     0.786480000000    -0.0478619  
C98      C      0.472670000000     0.564920000000     0.692190000000    -0.0384601  
C99      C      0.516430000000     0.586150000000     0.847670000000     0.0235895  
C100     C      0.488280000000     0.571420000000     0.746340000000     0.0274696  
C101     C      0.531200000000     0.593720000000     0.902100000000    -0.0398461  
C102     C      0.528590000000     0.598130000000     0.757240000000    -0.0418625  
C103     C      0.542740000000     0.605200000000     0.807530000000    -0.0446859  
C104     C      0.476490000000     0.558890000000     0.836740000000    -0.0451141  
C105     C      0.470440000000     0.601750000000     0.307010000000    -0.0454658  
C106     C      0.464080000000     0.574410000000     0.397800000000    -0.0400083  
C107     C      0.472760000000     0.545660000000     0.237120000000     0.0249523  
C108     C      0.468680000000     0.564370000000     0.341990000000     0.0276618  
C109     C      0.475110000000     0.535740000000     0.180960000000    -0.0414311  
C110     C      0.470100000000     0.517530000000     0.324230000000    -0.04462    
C111     C      0.472160000000     0.508250000000     0.272130000000    -0.0439317  
C112     C      0.472680000000     0.592480000000     0.254960000000    -0.046966   
C113     C      0.133680000000     0.263550000000     0.548880000000    -0.0437023  
C114     C      0.108070000000     0.179290000000     0.566080000000    -0.0192819  
C115     C      0.094580000000     0.330020000000     0.589450000000     0.0138091  
C116     C      0.104900000000     0.231810000000     0.575510000000     0.0153702  
C117     C      0.087160000000     0.382580000000     0.594400000000    -0.0144963  
C118     C      0.071700000000     0.249520000000     0.610040000000    -0.0420625  
C119     C      0.066260000000     0.298240000000     0.616600000000    -0.0416731  
C120     C      0.128690000000     0.312300000000     0.555970000000    -0.0415421  
C121     C      0.958350000000     0.750490000000     0.600710000000    -0.0423754  
C122     C      0.920200000000     0.671170000000     0.583950000000    -0.01508    
C123     C      0.942250000000     0.818670000000     0.546990000000     0.0149964  
C124     C      0.926860000000     0.722990000000     0.572280000000     0.0146128  
C125     C      0.948590000000     0.870340000000     0.534170000000    -0.0193211  
C126     C      0.901760000000     0.744250000000     0.532430000000    -0.040898   
C127     C      0.909650000000     0.791510000000     0.519690000000    -0.0447705  
C128     C      0.965350000000     0.798150000000     0.588760000000    -0.0414291  
C129     C      0.762450000000     0.444390000000     0.505230000000    -0.0453813  
C130     C      0.851310000000     0.444800000000     0.503500000000    -0.0172021  
C131     C      0.717650000000     0.517390000000     0.499320000000     0.0129651  
C132     C      0.804660000000     0.470010000000     0.503410000000     0.0172369  
C133     C      0.670970000000     0.542190000000     0.494610000000    -0.0147634  
C134     C      0.802970000000     0.519560000000     0.499940000000    -0.040172   
C135     C      0.759820000000     0.543080000000     0.498100000000    -0.0429467  
C136     C      0.719340000000     0.467890000000     0.503070000000    -0.0399157  
C137     C      0.221060000000     0.639600000000     0.510910000000    -0.0435465  
C138     C      0.145920000000     0.595960000000     0.490480000000    -0.015116   
C139     C      0.297020000000     0.601120000000     0.503130000000     0.0120565  
C140     C      0.198340000000     0.597130000000     0.498260000000     0.0135515  
C141     C      0.349700000000     0.604340000000     0.499330000000    -0.0139569  
C142     C      0.225260000000     0.556140000000     0.490590000000    -0.0423862  
C143     C      0.274230000000     0.558110000000     0.493050000000    -0.041701   
C144     C      0.270040000000     0.641560000000     0.513420000000    -0.0427508  
C145     C      0.057380000000     0.228890000000     0.164860000000    -0.0432556  
C146     C      0.018130000000     0.149710000000     0.152350000000    -0.0197292  
C147     C      0.017940000000     0.302480000000     0.143500000000     0.0137499  
C148     C      0.017450000000     0.203030000000     0.150560000000     0.016242   
C149     C      0.018160000000     0.355670000000     0.139570000000    -0.0148303  
C150     C      0.977730000000     0.227290000000     0.132740000000    -0.0424831  
C151     C      0.977920000000     0.276650000000     0.129430000000    -0.0416438  
C152     C      0.057720000000     0.278190000000     0.161090000000    -0.0413392  
C153     C      0.064270000000     0.762010000000     0.043400000000    -0.0440239  
C154     C      0.068090000000     0.673030000000     0.053020000000    -0.0151169  
C155     C      0.996740000000     0.801030000000     0.005170000000     0.0180781  
C156     C      0.043420000000     0.717570000000     0.035770000000     0.0121378  
C157     C      0.970330000000     0.845420000000     0.990620000000    -0.0215409  
C158     C      0.998370000000     0.715360000000     0.014190000000    -0.0386006  
C159     C      0.975390000000     0.756640000000     0.998860000000    -0.0477799  
C160     C      0.040980000000     0.803370000000     0.028760000000    -0.0398957  
C161     C      0.818800000000     0.589610000000     0.119290000000    -0.0428895  
C162     C      0.895150000000     0.544400000000     0.122560000000    -0.0136454  
C163     C      0.743890000000     0.548880000000     0.123200000000     0.0130811  
C164     C      0.842440000000     0.546170000000     0.122490000000     0.0126063  
C165     C      0.691180000000     0.550280000000     0.122610000000    -0.0135717  
C166     C      0.816500000000     0.504070000000     0.125300000000    -0.0416179  
C167     C      0.767530000000     0.505400000000     0.125400000000    -0.0418739  
C168     C      0.769810000000     0.590940000000     0.119540000000    -0.042532   
C169     C      0.254810000000     0.520100000000     0.969500000000    -0.0413498  
C170     C      0.195510000000     0.455490000000     0.983520000000    -0.0150669  
C171     C      0.338190000000     0.503320000000     0.964480000000     0.0114837  
C172     C      0.245260000000     0.471770000000     0.976060000000     0.0136532  
C173     C      0.388170000000     0.520290000000     0.963780000000    -0.0127434  
C174     C      0.282460000000     0.439250000000     0.976220000000    -0.0445982  
C175     C      0.328620000000     0.454950000000     0.970540000000    -0.0408962  
C176     C      0.300990000000     0.535810000000     0.964110000000    -0.0427476  
C177     C      0.046930000000     0.554720000000     0.780460000000    -0.0467176  
C178     C      0.048120000000     0.531570000000     0.688080000000    -0.0418457  
C179     C      0.059190000000     0.496480000000     0.846950000000     0.0259166  
C180     C      0.049650000000     0.519090000000     0.743500000000     0.0282684  
C181     C      0.068160000000     0.485390000000     0.902020000000    -0.0432521  
C182     C      0.055240000000     0.471820000000     0.758720000000    -0.0431616  
C183     C      0.059860000000     0.460560000000     0.810180000000    -0.0450807  
C184     C      0.051590000000     0.543480000000     0.831840000000    -0.0461317  
C185     C      0.056580000000     0.578770000000     0.330410000000    -0.0471539  
C186     C      0.995950000000     0.566130000000     0.398800000000    -0.0437433  
C187     C      0.036760000000     0.572080000000     0.241050000000     0.0264887  
C188     C      0.010230000000     0.567460000000     0.343790000000     0.0266626  
C189     C      0.051310000000     0.572530000000     0.186290000000    -0.0362146  
C190     C      0.977410000000     0.557730000000     0.305470000000    -0.0450665  
C191     C      0.990640000000     0.559870000000     0.254420000000    -0.0424551  
C192     C      0.069790000000     0.580910000000     0.279390000000    -0.0450203  
Cu1      Cu     0.054310000000     0.513240000000     0.102590000000     1.21312    
Cu2      Cu     0.036100000000     0.491850000000     0.999710000000     1.20058    
Cu3      Cu     0.001120000000     0.524630000000     0.597380000000     1.19885    
Cu4      Cu     0.999190000000     0.520080000000     0.490330000000     1.20993    
Cu5      Cu     0.530830000000     0.531240000000     0.095670000000     1.21261    
Cu6      Cu     0.548980000000     0.545630000000     0.991270000000     1.20346    
Cu7      Cu     0.506450000000     0.549780000000     0.594790000000     1.19339    
Cu8      Cu     0.509210000000     0.571340000000     0.490080000000     1.21206    
Cu9      Cu     0.055190000000     0.016010000000     0.010950000000     0.84943    
Cu10     Cu     0.991230000000     0.997750000000     0.071520000000     0.845778   
Cu11     Cu     0.072580000000     0.012770000000     0.551570000000     0.847695   
Cu12     Cu     0.991250000000     0.033570000000     0.527210000000     0.846754   
Cu13     Cu     0.508150000000     0.056510000000     0.031140000000     0.844734   
Cu14     Cu     0.422060000000     0.046140000000     0.036630000000     0.849576   
Cu15     Cu     0.504060000000     0.059030000000     0.538160000000     0.842804   
Cu16     Cu     0.417230000000     0.058310000000     0.536130000000     0.851175   
H1       H      0.424250000000     0.133950000000     0.687260000000     0.101629   
H2       H      0.506600000000     0.953080000000     0.845050000000     0.0334873  
H3       H      0.538790000000     0.993720000000     0.884450000000     0.0474268  
H4       H      0.507540000000     0.037170000000     0.692550000000     0.0495677  
H5       H      0.509870000000     0.976640000000     0.758830000000     0.0375263  
H6       H      0.495640000000     0.168920000000     0.720790000000     0.0340012  
H7       H      0.499430000000     0.085300000000     0.873540000000     0.0488071  
H8       H      0.495760000000     0.145730000000     0.807190000000     0.0376475  
H9       H      0.531360000000     0.132090000000     0.680950000000     0.047015   
H10      H      0.432470000000     0.980820000000     0.880130000000     0.101212   
H11      H      0.432600000000     0.114080000000     0.191340000000     0.102084   
H12      H      0.506370000000     0.947350000000     0.358380000000     0.0343611  
H13      H      0.538480000000     0.989210000000     0.396410000000     0.0477142  
H14      H      0.512230000000     0.021110000000     0.199710000000     0.0466282  
H15      H      0.511180000000     0.964920000000     0.270530000000     0.0383259  
H16      H      0.506140000000     0.154520000000     0.217640000000     0.034969   
H17      H      0.506570000000     0.081210000000     0.376710000000     0.048354   
H18      H      0.506490000000     0.137320000000     0.305860000000     0.0374243  
H19      H      0.539850000000     0.113620000000     0.180420000000     0.0473461  
H20      H      0.431810000000     0.982440000000     0.385720000000     0.101853   
H21      H      0.895510000000     0.073460000000     0.961830000000     0.0977508  
H22      H      0.925180000000     0.007370000000     0.699050000000     0.0393226  
H23      H      0.934330000000     0.067730000000     0.681130000000     0.0457763  
H24      H      0.893070000000     0.034970000000     0.871500000000     0.0432449  
H25      H      0.894900000000     0.005880000000     0.784000000000     0.0381983  
H26      H      0.979130000000     0.125170000000     0.923290000000     0.0450068  
H27      H      0.002650000000     0.107450000000     0.747490000000     0.0424579  
H28      H      0.001810000000     0.135810000000     0.835300000000     0.0396663  
H29      H      0.918220000000     0.137160000000     0.910760000000     0.0331636  
H30      H      0.021370000000     0.016410000000     0.713520000000     0.102729   
H31      H      0.104930000000     0.012520000000     0.384270000000     0.102119   
H32      H      0.133130000000     0.896370000000     0.193050000000     0.0319514  
H33      H      0.075080000000     0.888930000000     0.167640000000     0.0402332  
H34      H      0.000910000000     0.946560000000     0.313960000000     0.0399146  
H35      H      0.027720000000     0.899120000000     0.241740000000     0.0393406  
H36      H      0.039330000000     0.067900000000     0.341330000000     0.0382129  
H37      H      0.136620000000     0.001420000000     0.211590000000     0.0435719  
H38      H      0.109070000000     0.049320000000     0.283390000000     0.0394258  
H39      H      0.000830000000     0.021360000000     0.360140000000     0.0461338  
H40      H      0.150990000000     0.942600000000     0.122960000000     0.0983642  
H41      H      0.427760000000     0.196080000000     0.451340000000     0.100938   
H42      H      0.518420000000     0.425540000000     0.438760000000     0.0433641  
H43      H      0.455890000000     0.424140000000     0.437840000000     0.0372632  
H44      H      0.553530000000     0.265250000000     0.503300000000     0.0400461  
H45      H      0.547370000000     0.351500000000     0.509600000000     0.0413725  
H46      H      0.507000000000     0.196380000000     0.401480000000     0.0343498  
H47      H      0.435410000000     0.350390000000     0.399260000000     0.036672   
H48      H      0.442760000000     0.264310000000     0.391610000000     0.0378351  
H49      H      0.534800000000     0.192350000000     0.462070000000     0.0462121  
H50      H      0.479720000000     0.404170000000     0.540770000000     0.103816   
H51      H      0.535820000000     0.701980000000     0.611510000000     0.103052   
H52      H      0.494840000000     0.904180000000     0.674680000000     0.0322914  
H53      H      0.532790000000     0.935580000000     0.631670000000     0.0446888  
H54      H      0.590810000000     0.808670000000     0.535480000000     0.0372062  
H55      H      0.577210000000     0.885210000000     0.576750000000     0.0403751  
H56      H      0.505680000000     0.724470000000     0.505240000000     0.042549   
H57      H      0.442910000000     0.835670000000     0.630600000000     0.0385932  
H58      H      0.456000000000     0.759650000000     0.588160000000     0.0410693  
H59      H      0.567370000000     0.729560000000     0.515290000000     0.0377742  
H60      H      0.426710000000     0.921470000000     0.623180000000     0.0993835  
H61      H      0.411670000000     0.189140000000     0.960860000000     0.0994794  
H62      H      0.514750000000     0.380550000000     0.088220000000     0.0460696  
H63      H      0.574320000000     0.359460000000     0.086750000000     0.0377756  
H64      H      0.434830000000     0.285170000000     0.963580000000     0.0388644  
H65      H      0.459600000000     0.353520000000     0.014490000000     0.0407482  
H66      H      0.471470000000     0.219570000000     0.906830000000     0.0315017  
H67      H      0.589270000000     0.282390000000     0.050620000000     0.0382444  
H68      H      0.564330000000     0.213890000000     0.000170000000     0.0428719  
H69      H      0.514760000000     0.181650000000     0.934530000000     0.0429921  
H70      H      0.567800000000     0.391440000000     0.989530000000     0.104422   
H71      H      0.512740000000     0.685620000000     0.098940000000     0.102554   
H72      H      0.537860000000     0.900140000000     0.145100000000     0.0347226  
H73      H      0.557950000000     0.921320000000     0.084970000000     0.0480304  
H74      H      0.584250000000     0.745500000000     0.103000000000     0.039752   
H75      H      0.581270000000     0.826060000000     0.137220000000     0.0368263  
H76      H      0.509550000000     0.703670000000     0.991520000000     0.0379826  
H77      H      0.481370000000     0.864670000000     0.021060000000     0.0458115  
H78      H      0.483190000000     0.783830000000     0.988210000000     0.0376738  
H79      H      0.570210000000     0.701450000000     0.007580000000     0.0415378  
H80      H      0.453840000000     0.904760000000     0.109120000000     0.100357   
H81      H      0.549400000000     0.522010000000     0.903470000000     0.0912102  
H82      H      0.437700000000     0.547580000000     0.689850000000     0.0379738  
H83      H      0.470010000000     0.600270000000     0.674210000000     0.0412503  
H84      H      0.456090000000     0.543410000000     0.867200000000     0.0399297  
H85      H      0.431380000000     0.530760000000     0.778990000000     0.0383965  
H86      H      0.552490000000     0.626460000000     0.905660000000     0.042819   
H87      H      0.548990000000     0.613610000000     0.726760000000     0.0459744  
H88      H      0.573960000000     0.625860000000     0.815130000000     0.0412799  
H89      H      0.499450000000     0.598880000000     0.925790000000     0.0376228  
H90      H      0.501980000000     0.500780000000     0.671710000000     0.0922803  
H91      H      0.547480000000     0.543970000000     0.184120000000     0.0901605  
H92      H      0.441550000000     0.606020000000     0.404090000000     0.036943   
H93      H      0.447640000000     0.543660000000     0.417040000000     0.0401489  
H94      H      0.473970000000     0.621850000000     0.228580000000     0.0399415  
H95      H      0.469730000000     0.638100000000     0.320020000000     0.0376915  
H96      H      0.450900000000     0.506290000000     0.171300000000     0.0443096  
H97      H      0.469170000000     0.488170000000     0.350660000000     0.0407599  
H98      H      0.472990000000     0.471930000000     0.259080000000     0.0418509  
H99      H      0.463470000000     0.567270000000     0.159210000000     0.0407163  
H100     H      0.521310000000     0.617420000000     0.412220000000     0.0895387  
H101     H      0.072140000000     0.384700000000     0.513390000000     0.104153   
H102     H      0.136700000000     0.170480000000     0.538980000000     0.0418483  
H103     H      0.116170000000     0.161100000000     0.602510000000     0.0442543  
H104     H      0.150800000000     0.336290000000     0.534620000000     0.0384636  
H105     H      0.159560000000     0.250700000000     0.522110000000     0.0388187  
H106     H      0.065110000000     0.390950000000     0.628110000000     0.0441809  
H107     H      0.049230000000     0.225570000000     0.631020000000     0.0418461  
H108     H      0.039650000000     0.311110000000     0.642510000000     0.0395615  
H109     H      0.121580000000     0.400050000000     0.600830000000     0.0361635  
H110     H      0.037520000000     0.185240000000     0.534830000000     0.10281    
H111     H      0.024460000000     0.860590000000     0.541940000000     0.101399   
H112     H      0.939880000000     0.660580000000     0.618620000000     0.0445266  
H113     H      0.882280000000     0.664960000000     0.591110000000     0.0352487  
H114     H      0.989070000000     0.818850000000     0.611950000000     0.0419586  
H115     H      0.977480000000     0.735150000000     0.632210000000     0.0387893  
H116     H      0.935630000000     0.877940000000     0.495150000000     0.0416652  
H117     H      0.876380000000     0.724100000000     0.510790000000     0.0364618  
H118     H      0.890070000000     0.806940000000     0.488550000000     0.0370846  
H119     H      0.926660000000     0.891730000000     0.560510000000     0.0440914  
H120     H      0.923660000000     0.654000000000     0.503740000000     0.101034   
H121     H      0.658370000000     0.524730000000     0.574090000000     0.10522    
H122     H      0.845960000000     0.405890000000     0.505050000000     0.0350504  
H123     H      0.869940000000     0.453220000000     0.467540000000     0.0494992  
H124     H      0.687210000000     0.447430000000     0.503840000000     0.0412545  
H125     H      0.762810000000     0.406160000000     0.507740000000     0.0381483  
H126     H      0.675780000000     0.580710000000     0.487870000000     0.0390145  
H127     H      0.835090000000     0.539980000000     0.498250000000     0.0455911  
H128     H      0.759420000000     0.581270000000     0.495030000000     0.0379175  
H129     H      0.652140000000     0.528200000000     0.460780000000     0.0449189  
H130     H      0.864490000000     0.452010000000     0.583860000000     0.104314   
H131     H      0.354150000000     0.580860000000     0.578220000000     0.103001   
H132     H      0.133510000000     0.630920000000     0.476550000000     0.0355829  
H133     H      0.136810000000     0.569210000000     0.461070000000     0.0429145  
H134     H      0.286890000000     0.675020000000     0.521710000000     0.0379172  
H135     H      0.200920000000     0.671520000000     0.517460000000     0.0384572  
H136     H      0.361650000000     0.584860000000     0.464930000000     0.0406957  
H137     H      0.208400000000     0.522920000000     0.481280000000     0.0398725  
H138     H      0.294440000000     0.526460000000     0.485390000000     0.0400147  
H139     H      0.360890000000     0.641640000000     0.493520000000     0.0370623  
H140     H      0.136990000000     0.596400000000     0.572480000000     0.102815   
H141     H      0.010070000000     0.347540000000     0.057620000000     0.105386   
H142     H      0.034640000000     0.138050000000     0.188490000000     0.0385428  
H143     H      0.981900000000     0.135100000000     0.151110000000     0.0460878  
H144     H      0.089050000000     0.297360000000     0.171950000000     0.0391832  
H145     H      0.088480000000     0.210800000000     0.178340000000     0.0391593  
H146     H      0.986090000000     0.370000000000     0.158040000000     0.0396744  
H147     H      0.946700000000     0.208030000000     0.121110000000     0.04002    
H148     H      0.946960000000     0.294760000000     0.115610000000     0.0396413  
H149     H      0.048390000000     0.370940000000     0.160730000000     0.0451288  
H150     H      0.074400000000     0.151700000000     0.096820000000     0.102249   
H151     H      0.022560000000     0.874170000000     0.939760000000     0.101096   
H152     H      0.106010000000     0.679880000000     0.059530000000     0.0356095  
H153     H      0.052770000000     0.662190000000     0.090080000000     0.0432318  
H154     H      0.057620000000     0.837140000000     0.035960000000     0.0463274  
H155     H      0.098420000000     0.764780000000     0.061190000000     0.0374199  
H156     H      0.945300000000     0.836930000000     0.959550000000     0.0357425  
H157     H      0.980880000000     0.681660000000     0.009270000000     0.0420444  
H158     H      0.940690000000     0.753920000000     0.982360000000     0.0378478  
H159     H      0.949630000000     0.857530000000     0.023930000000     0.0486405  
H160     H      0.062710000000     0.644130000000     0.976800000000     0.1015     
H161     H      0.696400000000     0.558460000000     0.040350000000     0.106237   
H162     H      0.910420000000     0.579470000000     0.132270000000     0.0375858  
H163     H      0.907320000000     0.518900000000     0.151950000000     0.0416259  
H164     H      0.752100000000     0.624750000000     0.116940000000     0.0386775  
H165     H      0.838220000000     0.622440000000     0.116590000000     0.0377532  
H166     H      0.676500000000     0.519000000000     0.142780000000     0.0426712  
H167     H      0.834210000000     0.470220000000     0.127320000000     0.0407568  
H168     H      0.748090000000     0.472530000000     0.127360000000     0.0399982  
H169     H      0.678400000000     0.581810000000     0.143760000000     0.038005   
H170     H      0.889930000000     0.526510000000     0.042030000000     0.105088   
H171     H      0.384440000000     0.516230000000     0.046360000000     0.104303   
H172     H      0.173880000000     0.469060000000     0.951510000000     0.0427917  
H173     H      0.193180000000     0.416250000000     0.983110000000     0.0366954  
H174     H      0.307740000000     0.573350000000     0.960410000000     0.0382773  
H175     H      0.226510000000     0.545670000000     0.969400000000     0.0413635  
H176     H      0.409860000000     0.496630000000     0.939490000000     0.0387805  
H177     H      0.275880000000     0.401830000000     0.981390000000     0.0379405  
H178     H      0.357000000000     0.429490000000     0.971860000000     0.0387909  
H179     H      0.390790000000     0.556210000000     0.946780000000     0.0362892  
H180     H      0.200430000000     0.476410000000     0.062880000000     0.103735   
H181     H      0.999160000000     0.504110000000     0.918530000000     0.0905657  
H182     H      0.059230000000     0.568860000000     0.681930000000     0.0393612  
H183     H      0.072260000000     0.507950000000     0.666830000000     0.0434891  
H184     H      0.050430000000     0.571590000000     0.859780000000     0.0406952  
H185     H      0.042140000000     0.591330000000     0.769500000000     0.0382424  
H186     H      0.089110000000     0.452410000000     0.905630000000     0.0444445  
H187     H      0.056950000000     0.443810000000     0.730700000000     0.0422472  
H188     H      0.065150000000     0.424030000000     0.821170000000     0.0412121  
H189     H      0.089320000000     0.514480000000     0.918630000000     0.0389659  
H190     H      0.978740000000     0.551910000000     0.682150000000     0.091328   
H191     H      0.100920000000     0.519370000000     0.180810000000     0.0915671  
H192     H      0.018790000000     0.590080000000     0.421310000000     0.039661   
H193     H      0.959000000000     0.578090000000     0.402710000000     0.04512    
H194     H      0.105780000000     0.589400000000     0.269810000000     0.0376745  
H195     H      0.082520000000     0.585930000000     0.359500000000     0.0387411  
H196     H      0.021420000000     0.584380000000     0.162510000000     0.040315   
H197     H      0.941610000000     0.548540000000     0.315090000000     0.0416797  
H198     H      0.964920000000     0.551980000000     0.225340000000     0.0422211  
H199     H      0.080530000000     0.597950000000     0.179870000000     0.0349579  
H200     H      0.031040000000     0.502290000000     0.407870000000     0.0899849  
N1       N      0.456920000000     0.125020000000     0.671930000000    -0.21303    
N2       N      0.464400000000     0.992740000000     0.894900000000    -0.213193   
N3       N      0.464920000000     0.108770000000     0.173390000000    -0.212997   
N4       N      0.463680000000     0.992090000000     0.402440000000    -0.21289    
N5       N      0.930980000000     0.074440000000     0.951740000000    -0.213348   
N6       N      0.995890000000     0.026050000000     0.686820000000    -0.213719   
N7       N      0.069630000000     0.019370000000     0.392360000000    -0.212779   
N8       N      0.115620000000     0.942890000000     0.133500000000    -0.214256   
N9       N      0.460370000000     0.181930000000     0.461400000000    -0.213099   
N10      N      0.486060000000     0.427850000000     0.511000000000    -0.228857   
N11      N      0.531460000000     0.693120000000     0.573190000000    -0.228577   
N12      N      0.459350000000     0.936070000000     0.614060000000    -0.213112   
N13      N      0.446000000000     0.177170000000     0.966490000000    -0.213297   
N14      N      0.555630000000     0.402830000000     0.025000000000    -0.227516   
N15      N      0.523980000000     0.673890000000     0.063240000000    -0.229612   
N16      N      0.483520000000     0.923430000000     0.097120000000    -0.214058   
N17      N      0.558640000000     0.553740000000     0.921330000000    -0.266987   
N18      N      0.507210000000     0.536800000000     0.664620000000    -0.26804    
N19      N      0.522670000000     0.522750000000     0.165700000000    -0.268878   
N20      N      0.510250000000     0.582880000000     0.419950000000    -0.269046   
N21      N      0.066130000000     0.401930000000     0.547960000000    -0.227988   
N22      N      0.063490000000     0.161270000000     0.546160000000    -0.21396    
N23      N      0.997730000000     0.885590000000     0.537450000000    -0.213827   
N24      N      0.933880000000     0.642590000000     0.539890000000    -0.228843   
N25      N      0.642300000000     0.535830000000     0.540390000000    -0.227255   
N26      N      0.878770000000     0.459050000000     0.548050000000    -0.226267   
N27      N      0.373240000000     0.585660000000     0.544670000000    -0.228851   
N28      N      0.121630000000     0.585590000000     0.538290000000    -0.228689   
N29      N      0.019220000000     0.371320000000     0.086420000000    -0.22668    
N30      N      0.046370000000     0.131300000000     0.110230000000    -0.213249   
N31      N      0.002410000000     0.882080000000     0.971850000000    -0.213305   
N32      N      0.063310000000     0.635040000000     0.015330000000    -0.229185   
N33      N      0.673280000000     0.552010000000     0.070450000000    -0.22868    
N34      N      0.912960000000     0.529520000000     0.072830000000    -0.229149   
N35      N      0.407070000000     0.521340000000     0.015510000000    -0.230352   
N36      N      0.177290000000     0.472770000000     0.032260000000    -0.229644   
N37      N      0.024550000000     0.479900000000     0.930690000000    -0.265798   
N38      N      0.000750000000     0.525170000000     0.668520000000    -0.267923   
N39      N      0.065730000000     0.525060000000     0.171370000000    -0.270905   
N40      N      0.999540000000     0.518160000000     0.419140000000    -0.267515   
O1       O      0.061520000000     0.576030000000     0.074210000000    -0.49128    
O2       O      0.040120000000     0.446430000000     0.107650000000    -0.48382    
O3       O      0.117820000000     0.498160000000     0.082550000000    -0.495184   
O4       O      0.987630000000     0.523940000000     0.102040000000    -0.489732   
O5       O      0.972950000000     0.507380000000     0.021500000000    -0.486786   
O6       O      0.102390000000     0.477740000000     0.003460000000    -0.493542   
O7       O      0.025290000000     0.429320000000     0.027180000000    -0.478106   
O8       O      0.049300000000     0.558870000000     0.993480000000    -0.495169   
O9       O      0.969360000000     0.584110000000     0.585670000000    -0.487705   
O10      O      0.034340000000     0.465650000000     0.588070000000    -0.486265   
O11      O      0.059620000000     0.557130000000     0.582680000000    -0.488938   
O12      O      0.941780000000     0.492320000000     0.586520000000    -0.483592   
O13      O      0.940010000000     0.489140000000     0.502600000000    -0.481747   
O14      O      0.059120000000     0.551130000000     0.499120000000    -0.494215   
O15      O      0.029260000000     0.460170000000     0.504510000000    -0.489742   
O16      O      0.966730000000     0.579200000000     0.502020000000    -0.496144   
O17      O      0.522800000000     0.599000000000     0.093340000000    -0.496024   
O18      O      0.538650000000     0.465780000000     0.075910000000    -0.482162   
O19      O      0.598220000000     0.539420000000     0.096070000000    -0.493533   
O20      O      0.467430000000     0.525580000000     0.070880000000    -0.492995   
O21      O      0.481770000000     0.535210000000     0.989070000000    -0.494632   
O22      O      0.612920000000     0.550620000000     0.014460000000    -0.481514   
O23      O      0.557720000000     0.477880000000     0.995470000000    -0.488147   
O24      O      0.540770000000     0.610810000000     0.012700000000    -0.488582   
O25      O      0.519560000000     0.617170000000     0.597050000000    -0.488511   
O26      O      0.494410000000     0.486940000000     0.568590000000    -0.486624   
O27      O      0.572520000000     0.538450000000     0.581740000000    -0.480405   
O28      O      0.439970000000     0.562790000000     0.585240000000    -0.486193   
O29      O      0.443540000000     0.582450000000     0.504230000000    -0.494564   
O30      O      0.575170000000     0.559140000000     0.500780000000    -0.483929   
O31      O      0.498810000000     0.503900000000     0.486780000000    -0.49117    
O32      O      0.520450000000     0.634480000000     0.515100000000    -0.487843   
O33      O      0.039960000000     0.952880000000     0.977730000000    -0.401883   
O34      O      0.064280000000     0.077050000000     0.049870000000    -0.403814   
O35      O      0.098550000000     0.982580000000     0.060670000000    -0.40261    
O36      O      0.005580000000     0.048640000000     0.967840000000    -0.397859   
O37      O      0.947600000000     0.030070000000     0.021370000000    -0.403506   
O38      O      0.040880000000     0.966790000000     0.115610000000    -0.398704   
O39      O      0.005660000000     0.061680000000     0.103740000000    -0.399646   
O40      O      0.983470000000     0.935790000000     0.033550000000    -0.401352   
O41      O      0.052000000000     0.944040000000     0.546580000000    -0.401281   
O42      O      0.084880000000     0.083660000000     0.554450000000    -0.399899   
O43      O      0.050000000000     0.014640000000     0.624650000000    -0.402743   
O44      O      0.087350000000     0.012710000000     0.476160000000    -0.402424   
O45      O      0.013660000000     0.029770000000     0.453840000000    -0.399744   
O46      O      0.977050000000     0.035300000000     0.602920000000    -0.400606   
O47      O      0.012030000000     0.102000000000     0.530010000000    -0.404533   
O48      O      0.978060000000     0.963190000000     0.527260000000    -0.403225   
O49      O      0.513380000000     0.991370000000     0.062850000000    -0.402924   
O50      O      0.494530000000     0.120450000000     0.999240000000    -0.402639   
O51      O      0.504080000000     0.085260000000     0.101790000000    -0.402053   
O52      O      0.503780000000     0.026500000000     0.961340000000    -0.403833   
O53      O      0.426300000000     0.015870000000     0.966680000000    -0.402014   
O54      O      0.426210000000     0.077480000000     0.105850000000    -0.40197    
O55      O      0.416840000000     0.110820000000     0.003570000000    -0.402066   
O56      O      0.435760000000     0.982430000000     0.069240000000    -0.402285   
O57      O      0.499580000000     0.996260000000     0.575510000000    -0.401855   
O58      O      0.500000000000     0.121690000000     0.500590000000    -0.402057   
O59      O      0.498100000000     0.093140000000     0.605690000000    -0.403502   
O60      O      0.501550000000     0.024880000000     0.470450000000    -0.403123   
O61      O      0.423240000000     0.023210000000     0.469020000000    -0.401697   
O62      O      0.419770000000     0.093460000000     0.603410000000    -0.401697   
O63      O      0.421670000000     0.120820000000     0.498560000000    -0.402905   
O64      O      0.421230000000     0.995990000000     0.574120000000    -0.402863   


