data_structure

_audit_creation_method RASPA-1.0
_audit_creation_date 2023-5-23
_audit_author_name 'Poobodin Mano'

_cell_length_a    58.2668
_cell_length_b    58.0065
_cell_length_c    28.6548
_cell_angle_alpha 90
_cell_angle_beta  90
_cell_angle_gamma 90
_cell_volume      96849

_symmetry_cell_setting          triclinic
_symmetry_space_group_name_Hall 'P 1'
_symmetry_space_group_name_H-M  'P 1'
_symmetry_Int_Tables_number     1

_symmetry_equiv_pos_as_xyz 'x,y,z'

loop_
_atom_site_label
_atom_site_type_symbol
_atom_site_fract_x
_atom_site_fract_y
_atom_site_fract_z
_atom_site_charge
C1       C      0.381500000000     0.936260000000     0.019640000000     0.413127   
C2       C      0.382480000000     0.854340000000     0.102990000000     0.413148   
C3       C      0.390320000000     0.915460000000     0.142990000000     0.412173   
C4       C      0.373460000000     0.874820000000     0.980090000000     0.413511   
C5       C      0.383330000000     0.869210000000     0.552440000000     0.412857   
C6       C      0.404610000000     0.957220000000     0.580610000000     0.413575   
C7       C      0.398740000000     0.919100000000     0.475090000000     0.412579   
C8       C      0.389450000000     0.907380000000     0.658290000000     0.412405   
C9       C      0.396830000000     0.092770000000     0.081450000000     0.413103   
C10      C      0.408590000000     0.183670000000     0.078020000000     0.412707   
C11      C      0.391490000000     0.139030000000     0.990190000000     0.41299    
C12      C      0.414150000000     0.137690000000     0.169820000000     0.413658   
C13      C      0.409520000000     0.120150000000     0.597730000000     0.413154   
C14      C      0.398640000000     0.209800000000     0.566270000000     0.412995   
C15      C      0.415210000000     0.158630000000     0.493220000000     0.413375   
C16      C      0.392740000000     0.171130000000     0.671210000000     0.413737   
C17      C      0.937820000000     0.603030000000     0.003180000000     0.413714   
C18      C      0.850750000000     0.623800000000     0.966830000000     0.413389   
C19      C      0.883260000000     0.604690000000     0.073400000000     0.413918   
C20      C      0.905240000000     0.622160000000     0.896950000000     0.413641   
C21      C      0.841800000000     0.626420000000     0.506060000000     0.413006   
C22      C      0.928070000000     0.604840000000     0.464240000000     0.413318   
C23      C      0.872630000000     0.607100000000     0.397420000000     0.414048   
C24      C      0.897290000000     0.624170000000     0.572540000000     0.413813   
C25      C      0.101840000000     0.599100000000     0.989500000000     0.412928   
C26      C      0.191670000000     0.611800000000     0.969390000000     0.413035   
C27      C      0.143660000000     0.592490000000     0.890620000000     0.413845   
C28      C      0.149750000000     0.618400000000     0.068060000000     0.41369    
C29      C      0.091790000000     0.598440000000     0.466970000000     0.413198   
C30      C      0.181520000000     0.609310000000     0.492430000000     0.41324    
C31      C      0.141130000000     0.617040000000     0.391250000000     0.413841   
C32      C      0.132300000000     0.590760000000     0.567980000000     0.413898   
C33      C      0.613710000000     0.187620000000     0.029460000000     0.413276   
C34      C      0.599990000000     0.105720000000     0.107960000000     0.413274   
C35      C      0.619700000000     0.163530000000     0.151130000000     0.413334   
C36      C      0.593730000000     0.129460000000     0.987070000000     0.412416   
C37      C      0.610960000000     0.119870000000     0.558650000000     0.412724   
C38      C      0.627390000000     0.209000000000     0.585730000000     0.413795   
C39      C      0.626410000000     0.169730000000     0.481010000000     0.412883   
C40      C      0.612310000000     0.159180000000     0.663180000000     0.412319   
C41      C      0.600860000000     0.946500000000     0.122520000000     0.413177   
C42      C      0.613490000000     0.860770000000     0.062080000000     0.413119   
C43      C      0.618210000000     0.890500000000     0.178450000000     0.413792   
C44      C      0.596330000000     0.916750000000     0.006390000000     0.41392    
C45      C      0.603640000000     0.955800000000     0.567570000000     0.413531   
C46      C      0.612510000000     0.867910000000     0.616890000000     0.413988   
C47      C      0.597550000000     0.922720000000     0.679630000000     0.413593   
C48      C      0.618430000000     0.900910000000     0.504550000000     0.41372    
C49      C      0.460180000000     0.395830000000     0.053190000000     0.413605   
C50      C      0.373320000000     0.398780000000     0.996950000000     0.413499   
C51      C      0.419380000000     0.442790000000     0.017070000000     0.413363   
C52      C      0.414240000000     0.351640000000     0.033340000000     0.41301    
C53      C      0.342670000000     0.421060000000     0.459260000000     0.413203   
C54      C      0.430330000000     0.426580000000     0.509440000000     0.412949   
C55      C      0.386840000000     0.379080000000     0.502500000000     0.412826   
C56      C      0.386420000000     0.468980000000     0.466330000000     0.413074   
C57      C      0.354740000000     0.643600000000     0.041370000000     0.412875   
C58      C      0.442000000000     0.656050000000     0.089480000000     0.413079   
C59      C      0.389180000000     0.693570000000     0.086990000000     0.413221   
C60      C      0.407420000000     0.606360000000     0.043610000000     0.412981   
C61      C      0.347120000000     0.646060000000     0.495700000000     0.412933   
C62      C      0.428490000000     0.687550000000     0.497070000000     0.41312    
C63      C      0.367550000000     0.706940000000     0.510790000000     0.413624   
C64      C      0.408360000000     0.626190000000     0.481950000000     0.413373   
C65      C      0.708540000000     0.390090000000     0.019880000000     0.413033   
C66      C      0.619990000000     0.394480000000     0.063600000000     0.413725   
C67      C      0.660490000000     0.347060000000     0.028950000000     0.413021   
C68      C      0.667880000000     0.437540000000     0.054730000000     0.413017   
C69      C      0.640920000000     0.370940000000     0.542390000000     0.414031   
C70      C      0.632770000000     0.458860000000     0.493100000000     0.413515   
C71      C      0.681630000000     0.417000000000     0.502730000000     0.413224   
C72      C      0.591740000000     0.412980000000     0.533290000000     0.413421   
C73      C      0.690550000000     0.653560000000     0.038090000000     0.413335   
C74      C      0.602830000000     0.644650000000     0.085880000000     0.413127   
C75      C      0.640950000000     0.694290000000     0.054280000000     0.413097   
C76      C      0.652410000000     0.603700000000     0.069970000000     0.413265   
C77      C      0.678410000000     0.661760000000     0.530190000000     0.413325   
C78      C      0.587550000000     0.661030000000     0.513060000000     0.413199   
C79      C      0.631020000000     0.705140000000     0.549550000000     0.413257   
C80      C      0.634610000000     0.617820000000     0.493990000000     0.413771   
C81      C      0.211760000000     0.383420000000     0.921510000000     0.413297   
C82      C      0.125380000000     0.364530000000     0.967340000000     0.412414   
C83      C      0.156080000000     0.379470000000     0.855640000000     0.413338   
C84      C      0.181350000000     0.368610000000     0.032620000000     0.412021   
C85      C      0.181170000000     0.382150000000     0.413840000000     0.412931   
C86      C      0.093890000000     0.360720000000     0.445900000000     0.413662   
C87      C      0.143520000000     0.379250000000     0.520700000000     0.412814   
C88      C      0.131370000000     0.363530000000     0.339510000000     0.41252    
C89      C      0.873780000000     0.376530000000     0.946840000000     0.413133   
C90      C      0.962670000000     0.362720000000     0.978130000000     0.413373   
C91      C      0.912360000000     0.380590000000     0.051940000000     0.413838   
C92      C      0.923960000000     0.358790000000     0.873350000000     0.413926   
C93      C      0.846470000000     0.388460000000     0.469530000000     0.413456   
C94      C      0.934060000000     0.362970000000     0.472900000000     0.413585   
C95      C      0.886990000000     0.366440000000     0.561730000000     0.413541   
C96      C      0.893720000000     0.384890000000     0.380600000000     0.413984   
C97      C      0.914950000000     0.331930000000     0.677000000000    -0.0408925  
C98      C      0.880220000000     0.338940000000     0.626630000000    -0.0197431  
C99      C      0.912370000000     0.331300000000     0.761610000000     0.0158955  
C100     C      0.891220000000     0.335800000000     0.673760000000     0.015498   
C101     C      0.923700000000     0.330180000000     0.808770000000    -0.0195769  
C102     C      0.878130000000     0.337430000000     0.714770000000    -0.0438718  
C103     C      0.888650000000     0.335220000000     0.758380000000    -0.0405923  
C104     C      0.925480000000     0.329800000000     0.720610000000    -0.044065   
C105     C      0.926010000000     0.407360000000     0.244200000000    -0.0424313  
C106     C      0.901960000000     0.412260000000     0.316780000000    -0.0188701  
C107     C      0.909320000000     0.410820000000     0.166820000000     0.0147413  
C108     C      0.904540000000     0.411840000000     0.264500000000     0.0148774  
C109     C      0.911840000000     0.409760000000     0.114590000000    -0.0185337  
C110     C      0.885410000000     0.415450000000     0.235640000000    -0.0426053  
C111     C      0.887770000000     0.414860000000     0.187110000000    -0.0425956  
C112     C      0.928370000000     0.406800000000     0.195680000000    -0.0422524  
C113     C      0.001470000000     0.330390000000     0.423230000000    -0.0425078  
C114     C      0.963900000000     0.332780000000     0.466980000000    -0.0190971  
C115     C      0.038010000000     0.330650000000     0.464130000000     0.0145487  
C116     C      0.989710000000     0.331380000000     0.465940000000     0.0148752  
C117     C      0.063810000000     0.331830000000     0.462770000000    -0.0184731  
C118     C      0.002270000000     0.331990000000     0.507740000000    -0.042659   
C119     C      0.026250000000     0.331740000000     0.506840000000    -0.0427357  
C120     C      0.025450000000     0.330050000000     0.422340000000    -0.0419241  
C121     C      0.122790000000     0.399060000000     0.665170000000    -0.0421611  
C122     C      0.142480000000     0.405860000000     0.587910000000    -0.0194065  
C123     C      0.142900000000     0.404300000000     0.738720000000     0.0148333  
C124     C      0.142850000000     0.404570000000     0.640440000000     0.0152356  
C125     C      0.142910000000     0.404580000000     0.791300000000    -0.0188206  
C126     C      0.163110000000     0.409280000000     0.665190000000    -0.0430529  
C127     C      0.163150000000     0.409080000000     0.713980000000    -0.0415345  
C128     C      0.122830000000     0.398850000000     0.713970000000    -0.0429318  
C129     C      0.162290000000     0.382420000000     0.231920000000    -0.0386519  
C130     C      0.121480000000     0.376850000000     0.259200000000    -0.0209751  
C131     C      0.172330000000     0.381790000000     0.149530000000     0.0189381  
C132     C      0.139150000000     0.378350000000     0.220890000000     0.0175757  
C133     C      0.189920000000     0.384670000000     0.111340000000    -0.0205517  
C134     C      0.132690000000     0.376340000000     0.173840000000    -0.0450841  
C135     C      0.149100000000     0.378210000000     0.138460000000    -0.0386767  
C136     C      0.178730000000     0.384080000000     0.196580000000    -0.0458464  
C137     C      0.058380000000     0.339820000000     0.029400000000    -0.0428677  
C138     C      0.094290000000     0.336270000000     0.980620000000    -0.0195266  
C139     C      0.020440000000     0.336440000000     0.994810000000     0.0145869  
C140     C      0.068550000000     0.336440000000     0.985500000000     0.0151334  
C141     C      0.994690000000     0.336810000000     0.999330000000    -0.0187256  
C142     C      0.054480000000     0.333390000000     0.946200000000    -0.0423911  
C143     C      0.030610000000     0.333420000000     0.950820000000    -0.0416001  
C144     C      0.034490000000     0.339920000000     0.034000000000    -0.0430192  
C145     C      0.776910000000     0.434660000000     0.465510000000    -0.043973   
C146     C      0.816830000000     0.418650000000     0.478030000000    -0.0195803  
C147     C      0.745170000000     0.423600000000     0.515810000000     0.0149088  
C148     C      0.791670000000     0.419840000000     0.490040000000     0.0151687  
C149     C      0.720520000000     0.426390000000     0.530740000000    -0.0189368  
C150     C      0.782960000000     0.406860000000     0.527440000000    -0.0413721  
C151     C      0.759860000000     0.408600000000     0.540010000000    -0.042938   
C152     C      0.753850000000     0.436570000000     0.478400000000    -0.0419665  
C153     C      0.610500000000     0.528440000000     0.427750000000    -0.0431239  
C154     C      0.628020000000     0.488660000000     0.432140000000    -0.0192157  
C155     C      0.634380000000     0.562780000000     0.426860000000     0.0143171  
C156     C      0.630160000000     0.514460000000     0.428280000000     0.0148698  
C157     C      0.636560000000     0.588550000000     0.431250000000    -0.0183624  
C158     C      0.651940000000     0.524800000000     0.427700000000    -0.0422785  
C159     C      0.654040000000     0.548790000000     0.427220000000    -0.0426519  
C160     C      0.612600000000     0.552440000000     0.427140000000    -0.0419874  
C161     C      0.796370000000     0.357680000000     0.974750000000    -0.0434005  
C162     C      0.834600000000     0.361170000000     0.933750000000    -0.0199962  
C163     C      0.764210000000     0.382770000000     0.955800000000     0.0149828  
C164     C      0.810280000000     0.369200000000     0.942200000000     0.016256   
C165     C      0.739150000000     0.389160000000     0.960320000000    -0.0194689  
C166     C      0.800740000000     0.387150000000     0.915600000000    -0.0413461  
C167     C      0.778000000000     0.394000000000     0.922640000000    -0.044024   
C168     C      0.773460000000     0.364140000000     0.980940000000    -0.0407884  
C169     C      0.689970000000     0.511440000000     0.097530000000    -0.0430432  
C170     C      0.675620000000     0.470570000000     0.106670000000    -0.0192657  
C171     C      0.665190000000     0.544240000000     0.113230000000     0.0145909  
C172     C      0.671800000000     0.496260000000     0.107090000000     0.0150941  
C173     C      0.661900000000     0.569870000000     0.118300000000    -0.0184816  
C174     C      0.650110000000     0.505260000000     0.118170000000    -0.0421205  
C175     C      0.646810000000     0.529090000000     0.121080000000    -0.0425458  
C176     C      0.686670000000     0.535270000000     0.100450000000    -0.0420759  
C177     C      0.526110000000     0.690950000000     0.545740000000    -0.0396745  
C178     C      0.548820000000     0.653990000000     0.546140000000    -0.020127   
C179     C      0.484500000000     0.691040000000     0.539430000000     0.019287   
C180     C      0.526380000000     0.666800000000     0.542700000000     0.015352   
C181     C      0.462000000000     0.703850000000     0.539740000000    -0.0205664  
C182     C      0.505550000000     0.654840000000     0.538020000000    -0.043785   
C183     C      0.484760000000     0.666860000000     0.536610000000    -0.0398938  
C184     C      0.505350000000     0.702980000000     0.544010000000    -0.0460136  
C185     C      0.536730000000     0.669240000000     0.150390000000    -0.041825   
C186     C      0.572290000000     0.644410000000     0.145940000000    -0.0192406  
C187     C      0.498540000000     0.652410000000     0.149190000000     0.0150688  
C188     C      0.546590000000     0.647200000000     0.147330000000     0.0151252  
C189     C      0.472830000000     0.655210000000     0.148890000000    -0.0188125  
C190     C      0.532240000000     0.627810000000     0.144570000000    -0.0429983  
C191     C      0.508390000000     0.630400000000     0.145290000000    -0.0416838  
C192     C      0.512880000000     0.671830000000     0.151230000000    -0.0429492  
C193     C      0.251320000000     0.397090000000     0.366220000000    -0.041846   
C194     C      0.221500000000     0.370380000000     0.400750000000    -0.0196431  
C195     C      0.289080000000     0.401460000000     0.401350000000     0.0152719  
C196     C      0.245020000000     0.381290000000     0.401100000000     0.0155455  
C197     C      0.312960000000     0.411580000000     0.400440000000    -0.0196951  
C198     C      0.261100000000     0.375270000000     0.435490000000    -0.0429639  
C199     C      0.283020000000     0.385050000000     0.435280000000    -0.0407419  
C200     C      0.273130000000     0.407160000000     0.366460000000    -0.0442458  
C201     C      0.524430000000     0.442810000000     0.572380000000    -0.042161   
C202     C      0.558640000000     0.417080000000     0.586620000000    -0.0194599  
C203     C      0.485460000000     0.427950000000     0.575490000000     0.01445    
C204     C      0.533130000000     0.420790000000     0.582460000000     0.0154266  
C205     C      0.460000000000     0.431590000000     0.570280000000    -0.0184777  
C206     C      0.517850000000     0.402300000000     0.588280000000    -0.043418   
C207     C      0.494180000000     0.405850000000     0.584670000000    -0.0415966  
C208     C      0.500760000000     0.446350000000     0.568770000000    -0.0426252  
C209     C      0.385570000000     0.544690000000     0.408690000000    -0.0431006  
C210     C      0.392350000000     0.501630000000     0.411830000000    -0.0196247  
C211     C      0.416360000000     0.571880000000     0.424620000000     0.0175746  
C212     C      0.400560000000     0.526150000000     0.416710000000     0.0155064  
C213     C      0.424660000000     0.596370000000     0.428920000000    -0.0202082  
C214     C      0.423370000000     0.530640000000     0.429640000000    -0.0409725  
C215     C      0.431190000000     0.553330000000     0.433730000000    -0.0442475  
C216     C      0.393410000000     0.567390000000     0.412720000000    -0.0408132  
C217     C      0.306710000000     0.421920000000     0.951180000000    -0.0411756  
C218     C      0.332270000000     0.405270000000     0.014030000000    -0.0192117  
C219     C      0.267360000000     0.408910000000     0.940830000000     0.0164429  
C220     C      0.309640000000     0.406510000000     0.988530000000     0.0148855  
C221     C      0.244560000000     0.410770000000     0.916060000000    -0.0207397  
C222     C      0.291060000000     0.392800000000     0.002720000000    -0.0433089  
C223     C      0.270020000000     0.394180000000     0.979460000000    -0.039945   
C224     C      0.285790000000     0.423040000000     0.927440000000    -0.045306   
C225     C      0.551560000000     0.415310000000     0.122950000000    -0.0427466  
C226     C      0.588940000000     0.393370000000     0.122330000000    -0.0189753  
C227     C      0.514840000000     0.395480000000     0.121100000000     0.0144524  
C228     C      0.563110000000     0.394070000000     0.123290000000     0.0151503  
C229     C      0.489120000000     0.396200000000     0.116290000000    -0.0183399  
C230     C      0.550360000000     0.373540000000     0.122490000000    -0.0425726  
C231     C      0.526390000000     0.374250000000     0.121300000000    -0.0419603  
C232     C      0.527590000000     0.416010000000     0.121660000000    -0.0421362  
C233     C      0.442060000000     0.540400000000     0.992760000000    -0.0428986  
C234     C      0.419160000000     0.577190000000     0.985620000000    -0.0193346  
C235     C      0.425360000000     0.503190000000     0.973560000000     0.0144815  
C236     C      0.421240000000     0.551370000000     0.982020000000     0.0150284  
C237     C      0.427430000000     0.477390000000     0.969590000000    -0.0185753  
C238     C      0.402360000000     0.538030000000     0.967960000000    -0.0425901  
C239     C      0.404390000000     0.514110000000     0.963890000000    -0.0421049  
C240     C      0.444080000000     0.516460000000     0.988710000000    -0.0424844  
C241     C      0.594340000000     0.791300000000     0.591920000000    -0.0431364  
C242     C      0.595670000000     0.829530000000     0.634290000000    -0.0198421  
C243     C      0.617760000000     0.758780000000     0.616580000000     0.0149145  
C244     C      0.603450000000     0.804900000000     0.627980000000     0.0163574  
C245     C      0.624650000000     0.733780000000     0.612020000000    -0.0193906  
C246     C      0.619370000000     0.795070000000     0.658960000000    -0.0418608  
C247     C      0.626560000000     0.772260000000     0.653150000000    -0.0437755  
C248     C      0.601190000000     0.768360000000     0.586660000000    -0.0409828  
C249     C      0.606650000000     0.758030000000     0.055070000000    -0.0410074  
C250     C      0.628590000000     0.728230000000     0.008510000000    -0.0193092  
C251     C      0.606190000000     0.798420000000     0.032440000000     0.0156547  
C252     C      0.621140000000     0.752780000000     0.017350000000     0.0150358  
C253     C      0.597720000000     0.822740000000     0.039840000000    -0.0194041  
C254     C      0.627770000000     0.770490000000     0.986760000000    -0.0437277  
C255     C      0.620220000000     0.793080000000     0.994050000000    -0.0418949  
C256     C      0.599430000000     0.780680000000     0.062810000000    -0.0431417  
C257     C      0.569150000000     0.905980000000     0.816510000000    -0.0418369  
C258     C      0.568630000000     0.928780000000     0.741640000000    -0.0192563  
C259     C      0.567150000000     0.924770000000     0.892170000000     0.0146333  
C260     C      0.568190000000     0.927480000000     0.794120000000     0.0151412  
C261     C      0.567380000000     0.923280000000     0.944620000000    -0.0185009  
C262     C      0.567060000000     0.947650000000     0.821110000000    -0.0433721  
C263     C      0.566620000000     0.946310000000     0.869820000000    -0.0428515  
C264     C      0.568720000000     0.904640000000     0.865190000000    -0.0417335  
C265     C      0.648150000000     0.870150000000     0.370200000000    -0.042437   
C266     C      0.647140000000     0.895330000000     0.442090000000    -0.0190898  
C267     C      0.647570000000     0.886720000000     0.292310000000     0.0159417  
C268     C      0.647350000000     0.892300000000     0.389890000000     0.0151797  
C269     C      0.647300000000     0.883870000000     0.240100000000    -0.0196466  
C270     C      0.646270000000     0.911610000000     0.360460000000    -0.042073   
C271     C      0.646320000000     0.908840000000     0.312020000000    -0.0415192  
C272     C      0.648190000000     0.867370000000     0.321730000000    -0.0433833  
C273     C      0.668170000000     0.279020000000     0.577090000000    -0.042855   
C274     C      0.653620000000     0.240800000000     0.607620000000    -0.0191178  
C275     C      0.652180000000     0.315320000000     0.604360000000     0.0149142  
C276     C      0.653630000000     0.266800000000     0.607320000000     0.0152514  
C277     C      0.650760000000     0.341230000000     0.600980000000    -0.0186161  
C278     C      0.638810000000     0.279070000000     0.636980000000    -0.042207   
C279     C      0.637940000000     0.303130000000     0.635230000000    -0.042953   
C280     C      0.667560000000     0.303100000000     0.575880000000    -0.0419248  
C281     C      0.588260000000     0.050350000000     0.499920000000    -0.0429878  
C282     C      0.583660000000     0.088530000000     0.541240000000    -0.0193849  
C283     C      0.580760000000     0.014110000000     0.539630000000     0.0145013  
C284     C      0.583130000000     0.062570000000     0.540920000000     0.0149798  
C285     C      0.579770000000     0.988170000000     0.539340000000    -0.0186015  
C286     C      0.577300000000     0.050360000000     0.581530000000    -0.042605   
C287     C      0.576180000000     0.026300000000     0.580910000000    -0.04171    
C288     C      0.587160000000     0.026280000000     0.499330000000    -0.0429354  
C289     C      0.625930000000     0.254970000000     0.961600000000    -0.0419493  
C290     C      0.637960000000     0.214440000000     0.983350000000    -0.0198676  
C291     C      0.649880000000     0.288130000000     0.979780000000     0.015239   
C292     C      0.641900000000     0.240170000000     0.982870000000     0.0161476  
C293     C      0.654530000000     0.313700000000     0.976640000000    -0.0192886  
C294     C      0.662030000000     0.249540000000     0.002050000000    -0.0427834  
C295     C      0.666090000000     0.273280000000     0.000110000000    -0.0417317  
C296     C      0.629800000000     0.278750000000     0.960400000000    -0.0430242  
C297     C      0.623650000000     0.151970000000     0.830430000000    -0.043416   
C298     C      0.627650000000     0.152390000000     0.742480000000    -0.0199827  
C299     C      0.606590000000     0.119280000000     0.870720000000     0.0200159  
C300     C      0.619150000000     0.141580000000     0.787100000000     0.0150051  
C301     C      0.601670000000     0.106510000000     0.915440000000    -0.0205214  
C302     C      0.608050000000     0.120120000000     0.785890000000    -0.0398572  
C303     C      0.601780000000     0.109080000000     0.827320000000    -0.0460867  
C304     C      0.617490000000     0.140870000000     0.871900000000    -0.0403153  
C305     C      0.648910000000     0.150000000000     0.335780000000    -0.0422323  
C306     C      0.652820000000     0.170070000000     0.413580000000    -0.0192312  
C307     C      0.650500000000     0.171280000000     0.262770000000     0.0154802  
C308     C      0.651490000000     0.170570000000     0.361050000000     0.0149847  
C309     C      0.649790000000     0.171540000000     0.210200000000    -0.0192382  
C310     C      0.653040000000     0.191560000000     0.336850000000    -0.0424803  
C311     C      0.652470000000     0.191930000000     0.288060000000    -0.0433273  
C312     C      0.648350000000     0.150360000000     0.287010000000    -0.0414816  
C313     C      0.581510000000     0.015900000000     0.192320000000    -0.043466   
C314     C      0.575620000000     0.976820000000     0.155190000000    -0.0196794  
C315     C      0.573740000000     0.051240000000     0.149550000000     0.0149208  
C316     C      0.574760000000     0.002760000000     0.153530000000     0.0155244  
C317     C      0.574550000000     0.077140000000     0.146230000000    -0.0188803  
C318     C      0.567670000000     0.014020000000     0.112640000000    -0.0419237  
C319     C      0.567240000000     0.038090000000     0.110620000000    -0.0414286  
C320     C      0.581080000000     0.039980000000     0.190290000000    -0.0429292  
C321     C      0.277650000000     0.648360000000     0.508580000000    -0.0406379  
C322     C      0.314000000000     0.629180000000     0.537960000000    -0.0202338  
C323     C      0.240050000000     0.631620000000     0.522910000000     0.0150274  
C324     C      0.288250000000     0.629830000000     0.531740000000     0.015461   
C325     C      0.214220000000     0.632920000000     0.519390000000    -0.0191983  
C326     C      0.274480000000     0.612510000000     0.551420000000    -0.0444836  
C327     C      0.250590000000     0.613490000000     0.547390000000    -0.0411992  
C328     C      0.253790000000     0.649130000000     0.503830000000    -0.0435344  
C329     C      0.272260000000     0.631450000000     0.052300000000    -0.043909   
C330     C      0.315410000000     0.631330000000     0.061810000000    -0.0195681  
C331     C      0.253350000000     0.607270000000     0.994540000000     0.015721   
C332     C      0.293820000000     0.623580000000     0.037300000000     0.0149502  
C333     C      0.231680000000     0.597230000000     0.974010000000    -0.0203165  
C334     C      0.294970000000     0.607300000000     0.001090000000    -0.0408192  
C335     C      0.274920000000     0.599270000000     0.979810000000    -0.044948   
C336     C      0.252200000000     0.623220000000     0.031400000000    -0.040134   
C337     C      0.157810000000     0.562100000000     0.700390000000    -0.0419003  
C338     C      0.132840000000     0.560340000000     0.628600000000    -0.0191457  
C339     C      0.141510000000     0.559960000000     0.778300000000     0.014288   
C340     C      0.135910000000     0.559390000000     0.680750000000     0.0151109  
C341     C      0.144280000000     0.562000000000     0.830380000000    -0.0181047  
C342     C      0.116810000000     0.556990000000     0.710230000000    -0.0431963  
C343     C      0.119590000000     0.557330000000     0.758670000000    -0.0420295  
C344     C      0.160590000000     0.562450000000     0.748830000000    -0.0422975  
C345     C      0.123630000000     0.647350000000     0.251290000000    -0.0424088  
C346     C      0.141780000000     0.647660000000     0.331210000000    -0.0189329  
C347     C      0.146710000000     0.650160000000     0.180910000000     0.0146213  
C348     C      0.143430000000     0.649360000000     0.278880000000     0.0150401  
C349     C      0.148600000000     0.648790000000     0.128580000000    -0.0184669  
C350     C      0.164890000000     0.651760000000     0.257150000000    -0.0426749  
C351     C      0.166530000000     0.652090000000     0.208490000000    -0.0425958  
C352     C      0.125270000000     0.647680000000     0.202640000000    -0.0417132  
C353     C      0.739420000000     0.626830000000     0.532260000000    -0.0409322  
C354     C      0.713600000000     0.654160000000     0.576430000000    -0.0201601  
C355     C      0.780580000000     0.625670000000     0.545880000000     0.0149342  
C356     C      0.737050000000     0.644640000000     0.565120000000     0.0155945  
C357     C      0.803810000000     0.615150000000     0.536650000000    -0.0190954  
C358     C      0.756630000000     0.652820000000     0.588460000000    -0.0442666  
C359     C      0.778200000000     0.643340000000     0.579030000000    -0.0415614  
C360     C      0.761020000000     0.617530000000     0.522480000000    -0.0430865  
C361     C      0.021850000000     0.574110000000     0.492100000000    -0.0420478  
C362     C      0.058780000000     0.573750000000     0.446230000000    -0.0191301  
C363     C      0.984690000000     0.575350000000     0.453680000000     0.0148996  
C364     C      0.032950000000     0.574650000000     0.448630000000     0.014937   
C365     C      0.958880000000     0.575800000000     0.456370000000    -0.0187629  
C366     C      0.019750000000     0.575930000000     0.407710000000    -0.0429668  
C367     C      0.995790000000     0.576320000000     0.410230000000    -0.0426541  
C368     C      0.997900000000     0.574590000000     0.494620000000    -0.0420695  
C369     C      0.760960000000     0.670430000000     0.999690000000    -0.0412508  
C370     C      0.720410000000     0.658790000000     0.977590000000    -0.019625   
C371     C      0.794200000000     0.653710000000     0.961000000000     0.0162756  
C372     C      0.746160000000     0.656790000000     0.972510000000     0.0156784  
C373     C      0.819900000000     0.652620000000     0.954090000000    -0.0197426  
C374     C      0.755600000000     0.642140000000     0.938540000000    -0.0431917  
C375     C      0.779360000000     0.640840000000     0.932400000000    -0.0413224  
C376     C      0.784750000000     0.668670000000     0.994420000000    -0.043158   
C377     C      0.894140000000     0.657250000000     0.713190000000    -0.0422371  
C378     C      0.911050000000     0.651170000000     0.633130000000    -0.0191369  
C379     C      0.916640000000     0.650900000000     0.783390000000     0.0149533  
C380     C      0.913190000000     0.651600000000     0.685470000000     0.0152171  
C381     C      0.918030000000     0.649320000000     0.835730000000    -0.0187572  
C382     C      0.933940000000     0.645450000000     0.707040000000    -0.0427883  
C383     C      0.935630000000     0.645040000000     0.755680000000    -0.0428183  
C384     C      0.895840000000     0.656840000000     0.761810000000    -0.0416006  
C385     C      0.843310000000     0.583820000000     0.254530000000    -0.0433043  
C386     C      0.859280000000     0.580100000000     0.336170000000    -0.0192741  
C387     C      0.867260000000     0.577080000000     0.186450000000     0.0146292  
C388     C      0.861830000000     0.578530000000     0.283990000000     0.0153287  
C389     C      0.870500000000     0.577460000000     0.134350000000    -0.0183149  
C390     C      0.883120000000     0.572670000000     0.264340000000    -0.0417604  
C391     C      0.885830000000     0.572010000000     0.215910000000    -0.0420888  
C392     C      0.846030000000     0.583150000000     0.206080000000    -0.0422389  
C393     C      0.031050000000     0.575200000000     0.050890000000    -0.0428374  
C394     C      0.069200000000     0.573720000000     0.008850000000    -0.0191223  
C395     C      0.995020000000     0.574410000000     0.008170000000     0.0150381  
C396     C      0.043340000000     0.574460000000     0.008770000000     0.0150193  
C397     C      0.969170000000     0.574410000000     0.007880000000    -0.0187801  
C398     C      0.031300000000     0.574140000000     0.966340000000    -0.0423203  
C399     C      0.007310000000     0.574240000000     0.966040000000    -0.0420586  
C400     C      0.007050000000     0.575210000000     0.050580000000    -0.0427223  
C401     C      0.411960000000     0.313930000000     0.542180000000    -0.0408476  
C402     C      0.395450000000     0.339140000000     0.478210000000    -0.0195087  
C403     C      0.408940000000     0.272130000000     0.539100000000     0.0150906  
C404     C      0.399610000000     0.315850000000     0.500240000000     0.0150591  
C405     C      0.415240000000     0.248780000000     0.558600000000    -0.0194032  
C406     C      0.392470000000     0.295690000000     0.477330000000    -0.0439341  
C407     C      0.397330000000     0.274030000000     0.496290000000    -0.0408684  
C408     C      0.416420000000     0.292290000000     0.561600000000    -0.0439857  
C409     C      0.438380000000     0.283240000000     0.053750000000    -0.0413293  
C410     C      0.420360000000     0.312780000000     0.000330000000    -0.0194442  
C411     C      0.429140000000     0.242480000000     0.047590000000     0.015169   
C412     C      0.422940000000     0.288330000000     0.017540000000     0.0152109  
C413     C      0.432910000000     0.217800000000     0.062390000000    -0.0194846  
C414     C      0.410730000000     0.270290000000     0.996290000000    -0.0437969  
C415     C      0.413900000000     0.247540000000     0.011020000000    -0.0408364  
C416     C      0.441380000000     0.260510000000     0.068810000000    -0.0438688  
C417     C      0.363480000000     0.174490000000     0.866730000000    -0.0413233  
C418     C      0.362370000000     0.143170000000     0.927810000000    -0.019378   
C419     C      0.362780000000     0.165480000000     0.783930000000     0.0161315  
C420     C      0.362380000000     0.150920000000     0.877640000000     0.0152033  
C421     C      0.363410000000     0.173150000000     0.733760000000    -0.019746   
C422     C      0.361880000000     0.134660000000     0.841370000000    -0.0430451  
C423     C      0.362150000000     0.141890000000     0.794840000000    -0.0414625  
C424     C      0.363730000000     0.181720000000     0.820200000000    -0.0436392  
C425     C      0.444410000000     0.127660000000     0.363880000000    -0.0422308  
C426     C      0.444470000000     0.155800000000     0.431000000000    -0.0187806  
C427     C      0.445200000000     0.140740000000     0.283340000000     0.0147317  
C428     C      0.445370000000     0.150580000000     0.379530000000     0.0148227  
C429     C      0.443580000000     0.135670000000     0.231910000000    -0.0184581  
C430     C      0.446200000000     0.168540000000     0.346760000000    -0.0424553  
C431     C      0.446070000000     0.163660000000     0.299000000000    -0.0416468  
C432     C      0.444230000000     0.122780000000     0.316110000000    -0.0428134  
C433     C      0.336650000000     0.776180000000     0.531710000000    -0.0424019  
C434     C      0.348370000000     0.742400000000     0.481410000000    -0.0201551  
C435     C      0.353390000000     0.814210000000     0.521070000000     0.0150015  
C436     C      0.350180000000     0.767430000000     0.495220000000     0.0167607  
C437     C      0.354510000000     0.839450000000     0.533670000000    -0.0193119  
C438     C      0.365190000000     0.782310000000     0.471480000000    -0.0427863  
C439     C      0.366620000000     0.805550000000     0.484030000000    -0.0413895  
C440     C      0.338310000000     0.799350000000     0.544670000000    -0.0431962  
C441     C      0.430390000000     0.046950000000     0.651780000000    -0.0435149  
C442     C      0.434340000000     0.087310000000     0.619440000000    -0.0193409  
C443     C      0.434270000000     0.013330000000     0.601770000000     0.0141377  
C444     C      0.434220000000     0.061510000000     0.613440000000     0.0151262  
C445     C      0.433450000000     0.987590000000     0.595290000000    -0.0181418  
C446     C      0.437780000000     0.051830000000     0.569130000000    -0.0420654  
C447     C      0.437710000000     0.027910000000     0.563290000000    -0.0423042  
C448     C      0.430360000000     0.023020000000     0.645950000000    -0.0420686  
C449     C      0.384290000000     0.762390000000     0.176010000000    -0.0427345  
C450     C      0.375300000000     0.722930000000     0.142970000000    -0.0191118  
C451     C      0.365410000000     0.796840000000     0.146570000000     0.0159805  
C452     C      0.371680000000     0.748670000000     0.144830000000     0.0149541  
C453     C      0.362950000000     0.822710000000     0.145990000000    -0.0195397  
C454     C      0.355710000000     0.759200000000     0.114920000000    -0.0420375  
C455     C      0.352760000000     0.783110000000     0.115470000000    -0.0421291  
C456     C      0.381140000000     0.786280000000     0.176950000000    -0.0427876  
C457     C      0.383140000000     0.856160000000     0.822530000000    -0.0458503  
C458     C      0.386480000000     0.852770000000     0.910310000000    -0.0208783  
C459     C      0.399420000000     0.888810000000     0.780890000000     0.0146785  
C460     C      0.389710000000     0.865900000000     0.865400000000     0.0209304  
C461     C      0.406800000000     0.899700000000     0.735510000000    -0.0195274  
C462     C      0.400610000000     0.887480000000     0.865730000000    -0.0414335  
C463     C      0.405420000000     0.898860000000     0.823820000000    -0.0427506  
C464     C      0.388050000000     0.867480000000     0.780630000000    -0.0396713  
C465     C      0.420000000000     0.946740000000     0.284460000000    -0.0444292  
C466     C      0.417530000000     0.930120000000     0.202850000000    -0.0206122  
C467     C      0.420970000000     0.921820000000     0.352670000000     0.0142663  
C468     C      0.418090000000     0.927410000000     0.255170000000     0.0162593  
C469     C      0.423160000000     0.918820000000     0.404730000000    -0.0184923  
C470     C      0.417060000000     0.905320000000     0.275090000000    -0.0414247  
C471     C      0.418380000000     0.902550000000     0.323490000000    -0.0422124  
C472     C      0.421380000000     0.943950000000     0.332860000000    -0.0417873  
C473     C      0.368760000000     0.035670000000     0.017630000000    -0.0398552  
C474     C      0.371820000000     0.058530000000     0.092160000000    -0.0202197  
C475     C      0.364220000000     0.994000000000     0.018110000000     0.019009   
C476     C      0.369650000000     0.035920000000     0.066590000000     0.0154422  
C477     C      0.361040000000     0.971530000000     0.992540000000    -0.0207857  
C478     C      0.367970000000     0.015030000000     0.091140000000    -0.0434421  
C479     C      0.365250000000     0.994240000000     0.067070000000    -0.0403829  
C480     C      0.366160000000     0.014870000000     0.993560000000    -0.0456083  
Cu1      Cu     0.361050000000     0.896900000000     0.068710000000     0.845749   
Cu2      Cu     0.402810000000     0.893710000000     0.054000000000     0.846973   
Cu3      Cu     0.373460000000     0.918440000000     0.563670000000     0.847117   
Cu4      Cu     0.414560000000     0.907970000000     0.569630000000     0.846632   
Cu5      Cu     0.382390000000     0.141000000000     0.090800000000     0.848797   
Cu6      Cu     0.423180000000     0.135440000000     0.069240000000     0.84739    
Cu7      Cu     0.383560000000     0.161670000000     0.572520000000     0.849628   
Cu8      Cu     0.424470000000     0.168290000000     0.591870000000     0.847183   
Cu9      Cu     0.898090000000     0.633820000000     0.995320000000     0.847652   
Cu10     Cu     0.890460000000     0.593020000000     0.975050000000     0.849495   
Cu11     Cu     0.888750000000     0.636010000000     0.474610000000     0.849254   
Cu12     Cu     0.881090000000     0.595270000000     0.495400000000     0.847718   
Cu13     Cu     0.143280000000     0.625730000000     0.967700000000     0.848148   
Cu14     Cu     0.150210000000     0.585190000000     0.990960000000     0.848001   
Cu15     Cu     0.133400000000     0.624180000000     0.491340000000     0.848268   
Cu16     Cu     0.139930000000     0.583600000000     0.467860000000     0.848506   
Cu17     Cu     0.586700000000     0.152150000000     0.077450000000     0.84738    
Cu18     Cu     0.626910000000     0.141260000000     0.060300000000     0.846394   
Cu19     Cu     0.598630000000     0.168680000000     0.566400000000     0.848604   
Cu20     Cu     0.639920000000     0.160190000000     0.577720000000     0.846216   
Cu21     Cu     0.586800000000     0.899230000000     0.100390000000     0.846433   
Cu22     Cu     0.627650000000     0.908010000000     0.084460000000     0.84968    
Cu23     Cu     0.587450000000     0.908580000000     0.583640000000     0.846636   
Cu24     Cu     0.628630000000     0.915100000000     0.600560000000     0.849842   
Cu25     Cu     0.423090000000     0.395050000000     0.984140000000     0.849711   
Cu26     Cu     0.410380000000     0.399400000000     0.066180000000     0.846318   
Cu27     Cu     0.392430000000     0.420010000000     0.443610000000     0.847269   
Cu28     Cu     0.380560000000     0.428000000000     0.525030000000     0.847944   
Cu29     Cu     0.393760000000     0.644060000000     0.105910000000     0.845761   
Cu30     Cu     0.402920000000     0.655860000000     0.024940000000     0.849406   
Cu31     Cu     0.389270000000     0.663570000000     0.539000000000     0.848993   
Cu32     Cu     0.386570000000     0.669560000000     0.453620000000     0.845585   
Cu33     Cu     0.669050000000     0.389040000000     0.083370000000     0.847919   
Cu34     Cu     0.659470000000     0.395570000000     0.000180000000     0.847838   
Cu35     Cu     0.633560000000     0.408990000000     0.476850000000     0.848296   
Cu36     Cu     0.639810000000     0.420820000000     0.558940000000     0.848652   
Cu37     Cu     0.641430000000     0.646590000000     0.020440000000     0.846269   
Cu38     Cu     0.651980000000     0.651410000000     0.103600000000     0.848688   
Cu39     Cu     0.634810000000     0.667960000000     0.480660000000     0.846605   
Cu40     Cu     0.631130000000     0.655020000000     0.562700000000     0.849725   
Cu41     Cu     0.172100000000     0.353260000000     0.936840000000     0.847722   
Cu42     Cu     0.164980000000     0.394710000000     0.951590000000     0.847207   
Cu43     Cu     0.132080000000     0.391850000000     0.424390000000     0.849045   
Cu44     Cu     0.143000000000     0.350970000000     0.435750000000     0.845924   
Cu45     Cu     0.914270000000     0.349170000000     0.971790000000     0.846497   
Cu46     Cu     0.922160000000     0.390150000000     0.953580000000     0.849866   
Cu47     Cu     0.884570000000     0.355630000000     0.461880000000     0.846863   
Cu48     Cu     0.895960000000     0.395740000000     0.480400000000     0.850497   
H1       H      0.931090000000     0.366750000000     0.804450000000     0.102726   
H2       H      0.886520000000     0.325290000000     0.602540000000     0.046359   
H3       H      0.861250000000     0.337300000000     0.629040000000     0.0388012  
H4       H      0.943860000000     0.327160000000     0.722340000000     0.0385582  
H5       H      0.925350000000     0.330860000000     0.645730000000     0.0417307  
H6       H      0.913250000000     0.319190000000     0.832460000000     0.046686   
H7       H      0.859840000000     0.340650000000     0.713070000000     0.0387139  
H8       H      0.878330000000     0.336790000000     0.789680000000     0.0420431  
H9       H      0.940850000000     0.321910000000     0.805930000000     0.0372414  
H10      H      0.888820000000     0.375310000000     0.631550000000     0.102854   
H11      H      0.905100000000     0.372880000000     0.120950000000     0.103109   
H12      H      0.918280000000     0.417740000000     0.333640000000     0.0438409  
H13      H      0.888510000000     0.424880000000     0.327150000000     0.0419271  
H14      H      0.945050000000     0.403240000000     0.180630000000     0.0404645  
H15      H      0.940910000000     0.404230000000     0.265910000000     0.0402718  
H16      H      0.898810000000     0.420920000000     0.097380000000     0.0425123  
H17      H      0.868650000000     0.418630000000     0.250690000000     0.040172   
H18      H      0.872800000000     0.417580000000     0.165400000000     0.0403098  
H19      H      0.928840000000     0.416740000000     0.103930000000     0.0435167  
H20      H      0.891810000000     0.376180000000     0.310670000000     0.103191   
H21      H      0.059470000000     0.368810000000     0.452420000000     0.102989   
H22      H      0.956340000000     0.326070000000     0.434010000000     0.043962   
H23      H      0.957110000000     0.322060000000     0.496050000000     0.0413358  
H24      H      0.034240000000     0.329620000000     0.389040000000     0.0409     
H25      H      0.992100000000     0.330180000000     0.390580000000     0.0398893  
H26      H      0.071320000000     0.325760000000     0.496300000000     0.0418214  
H27      H      0.993480000000     0.333020000000     0.540990000000     0.0397742  
H28      H      0.035640000000     0.332630000000     0.539420000000     0.0393102  
H29      H      0.070540000000     0.320040000000     0.435360000000     0.043624   
H30      H      0.968710000000     0.369390000000     0.481380000000     0.102877   
H31      H      0.150090000000     0.367740000000     0.788450000000     0.103159   
H32      H      0.125640000000     0.412690000000     0.575840000000     0.0449006  
H33      H      0.155950000000     0.417870000000     0.575050000000     0.0420152  
H34      H      0.107130000000     0.394720000000     0.732420000000     0.0395973  
H35      H      0.107050000000     0.395150000000     0.646680000000     0.0408177  
H36      H      0.154480000000     0.418450000000     0.804230000000     0.0449025  
H37      H      0.178830000000     0.413340000000     0.646750000000     0.0401464  
H38      H      0.178900000000     0.412930000000     0.732480000000     0.041105   
H39      H      0.125520000000     0.408850000000     0.804750000000     0.040643   
H40      H      0.151770000000     0.369420000000     0.588190000000     0.102989   
H41      H      0.193330000000     0.349340000000     0.088550000000     0.100953   
H42      H      0.119810000000     0.394130000000     0.275600000000     0.0489037  
H43      H      0.104470000000     0.372060000000     0.244520000000     0.0356919  
H44      H      0.196440000000     0.387320000000     0.206020000000     0.0381529  
H45      H      0.167610000000     0.384380000000     0.267940000000     0.0457993  
H46      H      0.187470000000     0.401810000000     0.094750000000     0.0481388  
H47      H      0.114910000000     0.373510000000     0.164400000000     0.0383367  
H48      H      0.143640000000     0.376920000000     0.102420000000     0.048178   
H49      H      0.207450000000     0.384330000000     0.126620000000     0.0343415  
H50      H      0.130640000000     0.342440000000     0.281130000000     0.101468   
H51      H      0.996540000000     0.373340000000     0.981920000000     0.102929   
H52      H      0.102120000000     0.327180000000     0.010870000000     0.0409062  
H53      H      0.099570000000     0.326850000000     0.948510000000     0.0452091  
H54      H      0.026970000000     0.342650000000     0.068120000000     0.0388465  
H55      H      0.068960000000     0.342430000000     0.060040000000     0.0389779  
H56      H      0.987080000000     0.322960000000     0.977340000000     0.0444842  
H57      H      0.061980000000     0.330990000000     0.911950000000     0.0403006  
H58      H      0.020030000000     0.331080000000     0.920090000000     0.0412748  
H59      H      0.989390000000     0.332970000000     0.035800000000     0.0407432  
H60      H      0.092730000000     0.373600000000     0.989060000000     0.102003   
H61      H      0.710750000000     0.413580000000     0.461840000000     0.102101   
H62      H      0.820960000000     0.429490000000     0.447140000000     0.0401864  
H63      H      0.826800000000     0.425690000000     0.507940000000     0.0461492  
H64      H      0.742790000000     0.448320000000     0.459470000000     0.0400578  
H65      H      0.783280000000     0.444980000000     0.436810000000     0.0381701  
H66      H      0.717190000000     0.417190000000     0.564160000000     0.0441754  
H67      H      0.794120000000     0.395510000000     0.547110000000     0.0428215  
H68      H      0.753560000000     0.398480000000     0.569090000000     0.0389877  
H69      H      0.717050000000     0.444920000000     0.537780000000     0.0416871  
H70      H      0.811720000000     0.382450000000     0.460390000000     0.102419   
H71      H      0.634540000000     0.582740000000     0.506280000000     0.103113   
H72      H      0.610940000000     0.482710000000     0.419680000000     0.0418623  
H73      H      0.641250000000     0.480170000000     0.410040000000     0.0439412  
H74      H      0.597250000000     0.562960000000     0.427870000000     0.040361   
H75      H      0.593540000000     0.520800000000     0.428770000000     0.039293   
H76      H      0.653080000000     0.594620000000     0.416180000000     0.0414364  
H77      H      0.667300000000     0.514280000000     0.428680000000     0.0405689  
H78      H      0.670990000000     0.556450000000     0.428010000000     0.0392982  
H79      H      0.622770000000     0.597260000000     0.410990000000     0.0431336  
H80      H      0.632150000000     0.493820000000     0.507100000000     0.102742   
H81      H      0.743010000000     0.387490000000     0.036190000000     0.101659   
H82      H      0.839220000000     0.346740000000     0.957550000000     0.0469106  
H83      H      0.835620000000     0.354370000000     0.897550000000     0.038231   
H84      H      0.762960000000     0.354470000000     0.005210000000     0.0419527  
H85      H      0.803090000000     0.343360000000     0.994800000000     0.0392804  
H86      H      0.735980000000     0.406660000000     0.945800000000     0.042308   
H87      H      0.810790000000     0.395750000000     0.889010000000     0.03867    
H88      H      0.771050000000     0.407840000000     0.901550000000     0.0381434  
H89      H      0.728790000000     0.376970000000     0.939020000000     0.0445161  
H90      H      0.846050000000     0.396930000000     0.929670000000     0.101093   
H91      H      0.652830000000     0.570260000000     0.044380000000     0.103106   
H92      H      0.693900000000     0.466470000000     0.114180000000     0.0415672  
H93      H      0.665110000000     0.462290000000     0.134440000000     0.0448251  
H94      H      0.700960000000     0.546720000000     0.093510000000     0.0407028  
H95      H      0.706780000000     0.504840000000     0.088430000000     0.0398794  
H96      H      0.648520000000     0.573610000000     0.144960000000     0.042257   
H97      H      0.635820000000     0.493820000000     0.125190000000     0.0405986  
H98      H      0.630010000000     0.535700000000     0.130230000000     0.0398374  
H99      H      0.677930000000     0.578000000000     0.131570000000     0.0435254  
H100     H      0.666750000000     0.471560000000     0.032730000000     0.103003   
H101     H      0.455480000000     0.704930000000     0.465610000000     0.101129   
H102     H      0.556630000000     0.657820000000     0.580700000000     0.0474712  
H103     H      0.546100000000     0.635040000000     0.544160000000     0.0385551  
H104     H      0.505590000000     0.721600000000     0.546730000000     0.0383695  
H105     H      0.541990000000     0.700470000000     0.549760000000     0.0428557  
H106     H      0.452390000000     0.699210000000     0.571900000000     0.0485712  
H107     H      0.505320000000     0.636200000000     0.535970000000     0.0387499  
H108     H      0.468860000000     0.657290000000     0.533620000000     0.0482419  
H109     H      0.465190000000     0.722740000000     0.540880000000     0.03507    
H110     H      0.557330000000     0.665330000000     0.475990000000     0.102149   
H111     H      0.475820000000     0.664500000000     0.075510000000     0.103044   
H112     H      0.580890000000     0.659170000000     0.163580000000     0.0448492  
H113     H      0.577400000000     0.628440000000     0.164750000000     0.0406924  
H114     H      0.505590000000     0.688980000000     0.153390000000     0.0397214  
H115     H      0.547510000000     0.684450000000     0.151960000000     0.0400023  
H116     H      0.464470000000     0.639810000000     0.164670000000     0.0452178  
H117     H      0.539520000000     0.610690000000     0.141600000000     0.0397949  
H118     H      0.497610000000     0.615230000000     0.142820000000     0.0405421  
H119     H      0.467790000000     0.670140000000     0.170970000000     0.0399253  
H120     H      0.568470000000     0.639570000000     0.070920000000     0.102949   
H121     H      0.307770000000     0.422950000000     0.472130000000     0.102215   
H122     H      0.219100000000     0.361240000000     0.366990000000     0.0404019  
H123     H      0.219740000000     0.357270000000     0.428880000000     0.0459042  
H124     H      0.277580000000     0.419310000000     0.339210000000     0.0379075  
H125     H      0.239340000000     0.401640000000     0.338820000000     0.0389073  
H126     H      0.325000000000     0.398440000000     0.386320000000     0.0462111  
H127     H      0.256780000000     0.362850000000     0.462310000000     0.0398503  
H128     H      0.295250000000     0.379850000000     0.461740000000     0.0438561  
H129     H      0.313710000000     0.426690000000     0.376590000000     0.0401038  
H130     H      0.207210000000     0.405150000000     0.398890000000     0.101468   
H131     H      0.465190000000     0.425540000000     0.495960000000     0.102904   
H132     H      0.566910000000     0.432640000000     0.601920000000     0.0453884  
H133     H      0.562360000000     0.402340000000     0.610270000000     0.0408796  
H134     H      0.494380000000     0.463430000000     0.560730000000     0.039586   
H135     H      0.535970000000     0.457230000000     0.567240000000     0.0409259  
H136     H      0.450440000000     0.419900000000     0.594190000000     0.0438934  
H137     H      0.524240000000     0.385140000000     0.595540000000     0.0398037  
H138     H      0.482660000000     0.391350000000     0.589030000000     0.0402774  
H139     H      0.455230000000     0.449430000000     0.580730000000     0.0412381  
H140     H      0.558050000000     0.407510000000     0.513040000000     0.102972   
H141     H      0.423670000000     0.595890000000     0.504330000000     0.101216   
H142     H      0.376810000000     0.500800000000     0.389390000000     0.039755   
H143     H      0.405940000000     0.491060000000     0.394850000000     0.0463279  
H144     H      0.381610000000     0.581480000000     0.406350000000     0.0440401  
H145     H      0.367840000000     0.541600000000     0.399210000000     0.0397085  
H146     H      0.443620000000     0.596880000000     0.424740000000     0.0356476  
H147     H      0.435110000000     0.516560000000     0.436490000000     0.0414194  
H148     H      0.448850000000     0.556410000000     0.443750000000     0.0382677  
H149     H      0.417290000000     0.606930000000     0.400220000000     0.0477182  
H150     H      0.382130000000     0.503210000000     0.484770000000     0.103175   
H151     H      0.244290000000     0.374430000000     0.898750000000     0.101949   
H152     H      0.335650000000     0.422260000000     0.030640000000     0.0430399  
H153     H      0.331850000000     0.392280000000     0.042580000000     0.0436677  
H154     H      0.283970000000     0.435020000000     0.898670000000     0.0377632  
H155     H      0.320680000000     0.433020000000     0.940320000000     0.0405542  
H156     H      0.233410000000     0.422820000000     0.935930000000     0.0481582  
H157     H      0.292750000000     0.381120000000     0.032010000000     0.0392492  
H158     H      0.255870000000     0.383660000000     0.991550000000     0.0456509  
H159     H      0.247150000000     0.418150000000     0.880650000000     0.0372073  
H160     H      0.347990000000     0.397670000000     0.946510000000     0.102142   
H161     H      0.495100000000     0.393410000000     0.041380000000     0.103088   
H162     H      0.596100000000     0.407710000000     0.143630000000     0.0420897  
H163     H      0.595430000000     0.376950000000     0.137470000000     0.0438899  
H164     H      0.519000000000     0.432560000000     0.120560000000     0.039939   
H165     H      0.561120000000     0.431320000000     0.122940000000     0.0401526  
H166     H      0.481180000000     0.381600000000     0.135610000000     0.0422072  
H167     H      0.558960000000     0.356990000000     0.122110000000     0.0405403  
H168     H      0.516840000000     0.358230000000     0.119920000000     0.0401872  
H169     H      0.482080000000     0.412190000000     0.132280000000     0.0428638  
H170     H      0.585670000000     0.398520000000     0.047200000000     0.103164   
H171     H      0.416650000000     0.476100000000     0.042440000000     0.102774   
H172     H      0.435900000000     0.585540000000     0.977610000000     0.042612   
H173     H      0.406470000000     0.583760000000     0.959810000000     0.0438501  
H174     H      0.460270000000     0.508300000000     0.997190000000     0.0398444  
H175     H      0.456740000000     0.550370000000     0.004190000000     0.0400983  
H176     H      0.416620000000     0.470940000000     0.940350000000     0.0433827  
H177     H      0.386080000000     0.546160000000     0.960050000000     0.0399641  
H178     H      0.389630000000     0.504100000000     0.953010000000     0.040069   
H179     H      0.445360000000     0.472420000000     0.960810000000     0.042078   
H180     H      0.410460000000     0.571590000000     0.058840000000     0.102569   
H181     H      0.631890000000     0.740370000000     0.538400000000     0.102156   
H182     H      0.581780000000     0.834000000000     0.609230000000     0.0466527  
H183     H      0.588490000000     0.831360000000     0.670040000000     0.0383825  
H184     H      0.593570000000     0.758090000000     0.559150000000     0.0420093  
H185     H      0.581740000000     0.798350000000     0.568060000000     0.0394854  
H186     H      0.640120000000     0.730020000000     0.633450000000     0.041459   
H187     H      0.626240000000     0.805060000000     0.687690000000     0.0387773  
H188     H      0.638850000000     0.765090000000     0.677510000000     0.0380134  
H189     H      0.610580000000     0.722830000000     0.626020000000     0.0446529  
H190     H      0.631400000000     0.840120000000     0.640160000000     0.101685   
H191     H      0.633340000000     0.834250000000     0.035840000000     0.102113   
H192     H      0.613440000000     0.718280000000     0.996160000000     0.0452641  
H193     H      0.641700000000     0.727270000000     0.980370000000     0.0411908  
H194     H      0.588350000000     0.784290000000     0.092270000000     0.0392711  
H195     H      0.600910000000     0.744570000000     0.078550000000     0.042268   
H196     H      0.587510000000     0.828090000000     0.008920000000     0.0401692  
H197     H      0.638600000000     0.766810000000     0.956960000000     0.0381595  
H198     H      0.625290000000     0.806430000000     0.969690000000     0.0397841  
H199     H      0.585890000000     0.823680000000     0.070280000000     0.0456879  
H200     H      0.641960000000     0.727650000000     0.079670000000     0.102182   
H201     H      0.604240000000     0.929170000000     0.940630000000     0.103263   
H202     H      0.558730000000     0.914130000000     0.726640000000     0.0454126  
H203     H      0.560430000000     0.945000000000     0.729360000000     0.039344   
H204     H      0.569610000000     0.887900000000     0.881850000000     0.0407155  
H205     H      0.570300000000     0.890240000000     0.796270000000     0.041111   
H206     H      0.557880000000     0.938060000000     0.960040000000     0.0395183  
H207     H      0.566580000000     0.964410000000     0.804490000000     0.0387379  
H208     H      0.565870000000     0.962050000000     0.890080000000     0.0390101  
H209     H      0.558240000000     0.907450000000     0.956330000000     0.044526   
H210     H      0.605710000000     0.932760000000     0.746970000000     0.103026   
H211     H      0.610540000000     0.877740000000     0.244140000000     0.102568   
H212     H      0.656750000000     0.881100000000     0.459290000000     0.0421236  
H213     H      0.655700000000     0.911790000000     0.451920000000     0.0447542  
H214     H      0.648740000000     0.850140000000     0.307190000000     0.0394881  
H215     H      0.648680000000     0.855020000000     0.392350000000     0.0401968  
H216     H      0.657570000000     0.897830000000     0.223600000000     0.0470351  
H217     H      0.645330000000     0.928820000000     0.375010000000     0.0407216  
H218     H      0.645420000000     0.923940000000     0.289870000000     0.0419785  
H219     H      0.655660000000     0.867360000000     0.230120000000     0.0393629  
H220     H      0.610080000000     0.890600000000     0.437540000000     0.102966   
H221     H      0.640970000000     0.336050000000     0.528200000000     0.103108   
H222     H      0.667300000000     0.233670000000     0.584680000000     0.0443724  
H223     H      0.657210000000     0.234680000000     0.643660000000     0.0409245  
H224     H      0.678800000000     0.312210000000     0.552070000000     0.0412279  
H225     H      0.679850000000     0.269950000000     0.554130000000     0.0390641  
H226     H      0.638730000000     0.348420000000     0.627400000000     0.0431508  
H227     H      0.627610000000     0.269960000000     0.660860000000     0.0403034  
H228     H      0.626040000000     0.312190000000     0.657730000000     0.0386943  
H229     H      0.667880000000     0.348780000000     0.608810000000     0.0418211  
H230     H      0.617180000000     0.242970000000     0.590480000000     0.102639   
H231     H      0.616130000000     0.988800000000     0.557050000000     0.10294    
H232     H      0.578330000000     0.095360000000     0.506620000000     0.0419711  
H233     H      0.571360000000     0.095390000000     0.567510000000     0.0443546  
H234     H      0.591180000000     0.017150000000     0.467380000000     0.0389751  
H235     H      0.593010000000     0.059470000000     0.468380000000     0.0395914  
H236     H      0.565410000000     0.982090000000     0.561790000000     0.0443482  
H237     H      0.573520000000     0.059470000000     0.613620000000     0.040053   
H238     H      0.571650000000     0.017170000000     0.612580000000     0.0406341  
H239     H      0.576030000000     0.981680000000     0.503620000000     0.0402806  
H240     H      0.620550000000     0.085560000000     0.553240000000     0.10252    
H241     H      0.660840000000     0.313270000000     0.051820000000     0.102045   
H242     H      0.635740000000     0.208540000000     0.946730000000     0.0375364  
H243     H      0.653080000000     0.205180000000     0.997910000000     0.0463252  
H244     H      0.617210000000     0.289780000000     0.943840000000     0.0388448  
H245     H      0.610500000000     0.248090000000     0.945780000000     0.0389956  
H246     H      0.669910000000     0.316550000000     0.954410000000     0.041081   
H247     H      0.674760000000     0.238470000000     0.018090000000     0.0392318  
H248     H      0.681910000000     0.280070000000     0.014420000000     0.0402607  
H249     H      0.640110000000     0.322840000000     0.959140000000     0.0448893  
H250     H      0.603300000000     0.220170000000     0.009370000000     0.101649   
H251     H      0.569490000000     0.121730000000     0.936420000000     0.101033   
H252     H      0.636680000000     0.168930000000     0.749400000000     0.039243   
H253     H      0.640360000000     0.140500000000     0.726350000000     0.0472949  
H254     H      0.621630000000     0.148940000000     0.904940000000     0.0490682  
H255     H      0.632400000000     0.168420000000     0.832260000000     0.0383013  
H256     H      0.592730000000     0.090030000000     0.907590000000     0.0342997  
H257     H      0.604660000000     0.111700000000     0.752840000000     0.0426876  
H258     H      0.593600000000     0.092340000000     0.825440000000     0.0383249  
H259     H      0.618210000000     0.102110000000     0.932580000000     0.0480971  
H260     H      0.592160000000     0.159130000000     0.722860000000     0.102053   
H261     H      0.613320000000     0.179020000000     0.214900000000     0.103115   
H262     H      0.660780000000     0.153660000000     0.425580000000     0.0444234  
H263     H      0.663820000000     0.184390000000     0.426500000000     0.0417626  
H264     H      0.646390000000     0.134300000000     0.268130000000     0.0417464  
H265     H      0.647440000000     0.133650000000     0.353820000000     0.0405008  
H266     H      0.658790000000     0.187040000000     0.196540000000     0.0390952  
H267     H      0.654800000000     0.207640000000     0.355740000000     0.0400389  
H268     H      0.653710000000     0.208290000000     0.270040000000     0.0394697  
H269     H      0.659190000000     0.156330000000     0.196220000000     0.0461035  
H270     H      0.615930000000     0.176540000000     0.413300000000     0.103123   
H271     H      0.610760000000     0.073450000000     0.129350000000     0.102799   
H272     H      0.573460000000     0.970610000000     0.191650000000     0.0399709  
H273     H      0.561360000000     0.969450000000     0.134080000000     0.0458398  
H274     H      0.586640000000     0.049830000000     0.220350000000     0.0388045  
H275     H      0.587300000000     0.007530000000     0.223980000000     0.0389073  
H276     H      0.560230000000     0.083520000000     0.124010000000     0.0453791  
H277     H      0.562660000000     0.004180000000     0.082180000000     0.0412152  
H278     H      0.561990000000     0.046470000000     0.078560000000     0.0412439  
H279     H      0.572050000000     0.085010000000     0.181250000000     0.0396619  
H280     H      0.611860000000     0.979620000000     0.137450000000     0.102719   
H281     H      0.215150000000     0.597970000000     0.490950000000     0.101972   
H282     H      0.318540000000     0.640950000000     0.567180000000     0.0473027  
H283     H      0.319830000000     0.611650000000     0.548180000000     0.0399583  
H284     H      0.246060000000     0.663550000000     0.485670000000     0.0386851  
H285     H      0.287830000000     0.662290000000     0.494220000000     0.0434622  
H286     H      0.206950000000     0.635680000000     0.554820000000     0.0428648  
H287     H      0.282190000000     0.598330000000     0.570390000000     0.038322   
H288     H      0.240290000000     0.600100000000     0.563400000000     0.0406543  
H289     H      0.208770000000     0.647990000000     0.498060000000     0.0437376  
H290     H      0.318110000000     0.633340000000     0.462910000000     0.101279   
H291     H      0.220330000000     0.631310000000     0.952780000000     0.101692   
H292     H      0.311720000000     0.644840000000     0.088320000000     0.0411232  
H293     H      0.322710000000     0.616330000000     0.080920000000     0.0456112  
H294     H      0.235750000000     0.629150000000     0.044310000000     0.0443395  
H295     H      0.270910000000     0.643670000000     0.080760000000     0.0385395  
H296     H      0.235550000000     0.588330000000     0.940550000000     0.0380845  
H297     H      0.311400000000     0.600630000000     0.989640000000     0.0418656  
H298     H      0.276250000000     0.586540000000     0.952290000000     0.0379171  
H299     H      0.224910000000     0.584020000000     0.998520000000     0.0480182  
H300     H      0.327640000000     0.644080000000     0.994570000000     0.101932   
H301     H      0.138800000000     0.598860000000     0.820310000000     0.103497   
H302     H      0.147890000000     0.552410000000     0.610850000000     0.0449084  
H303     H      0.117330000000     0.550510000000     0.617870000000     0.0403921  
H304     H      0.177570000000     0.564960000000     0.763330000000     0.0401188  
H305     H      0.172710000000     0.564310000000     0.678200000000     0.040776   
H306     H      0.131280000000     0.551230000000     0.848640000000     0.0420493  
H307     H      0.099730000000     0.555210000000     0.695730000000     0.0393703  
H308     H      0.104610000000     0.555850000000     0.780870000000     0.0398081  
H309     H      0.161310000000     0.555250000000     0.841420000000     0.0422175  
H310     H      0.126460000000     0.597060000000     0.637990000000     0.103117   
H311     H      0.154560000000     0.612010000000     0.138380000000     0.102963   
H312     H      0.155810000000     0.657660000000     0.348080000000     0.0422228  
H313     H      0.125220000000     0.654970000000     0.343660000000     0.0437121  
H314     H      0.109840000000     0.645690000000     0.181920000000     0.040882   
H315     H      0.106960000000     0.645150000000     0.267420000000     0.0406992  
H316     H      0.133180000000     0.656580000000     0.111910000000     0.0444258  
H317     H      0.180400000000     0.653000000000     0.277860000000     0.0399475  
H318     H      0.183280000000     0.653540000000     0.192340000000     0.0393499  
H319     H      0.163550000000     0.659000000000     0.116090000000     0.0407806  
H320     H      0.146610000000     0.610710000000     0.321140000000     0.103317   
H321     H      0.814590000000     0.649160000000     0.512300000000     0.102575   
H322     H      0.703590000000     0.640470000000     0.594440000000     0.0471378  
H323     H      0.714790000000     0.669050000000     0.600730000000     0.039437   
H324     H      0.762400000000     0.603810000000     0.496990000000     0.03893    
H325     H      0.724510000000     0.620070000000     0.514280000000     0.0435755  
H326     H      0.810900000000     0.608250000000     0.569860000000     0.0429282  
H327     H      0.755210000000     0.666370000000     0.614290000000     0.0383286  
H328     H      0.793070000000     0.649730000000     0.597700000000     0.0407859  
H329     H      0.802470000000     0.600180000000     0.512510000000     0.043321   
H330     H      0.711350000000     0.666980000000     0.505240000000     0.102544   
H331     H      0.961020000000     0.612670000000     0.442230000000     0.10296    
H332     H      0.065180000000     0.559850000000     0.469610000000     0.0442309  
H333     H      0.064760000000     0.569620000000     0.410310000000     0.0418758  
H334     H      0.989670000000     0.574190000000     0.528510000000     0.0404386  
H335     H      0.031760000000     0.573300000000     0.524050000000     0.0414693  
H336     H      0.951450000000     0.565570000000     0.427220000000     0.0400845  
H337     H      0.027970000000     0.576550000000     0.373830000000     0.0390464  
H338     H      0.985880000000     0.577270000000     0.378300000000     0.0396046  
H339     H      0.952860000000     0.567390000000     0.489070000000     0.0448612  
H340     H      0.058180000000     0.610010000000     0.466420000000     0.102974   
H341     H      0.817770000000     0.615230000000     0.947510000000     0.101421   
H342     H      0.715140000000     0.676210000000     0.965510000000     0.0408183  
H343     H      0.711360000000     0.646130000000     0.954940000000     0.0457363  
H344     H      0.795760000000     0.679250000000     0.016080000000     0.039449   
H345     H      0.754130000000     0.682480000000     0.025000000000     0.0401229  
H346     H      0.824010000000     0.659660000000     0.919000000000     0.0387588  
H347     H      0.744570000000     0.631890000000     0.916260000000     0.0387817  
H348     H      0.786140000000     0.629810000000     0.905220000000     0.0390036  
H349     H      0.828890000000     0.663790000000     0.979840000000     0.0469278  
H350     H      0.724930000000     0.657420000000     0.053300000000     0.101878   
H351     H      0.910000000000     0.612830000000     0.827930000000     0.102918   
H352     H      0.898520000000     0.664400000000     0.621210000000     0.0445985  
H353     H      0.927830000000     0.655220000000     0.616510000000     0.0419063  
H354     H      0.880880000000     0.660980000000     0.782640000000     0.0408164  
H355     H      0.877900000000     0.661720000000     0.697170000000     0.0405625  
H356     H      0.935890000000     0.652540000000     0.847770000000     0.0406001  
H357     H      0.948720000000     0.640720000000     0.686210000000     0.0399406  
H358     H      0.951690000000     0.639970000000     0.771710000000     0.0395848  
H359     H      0.907250000000     0.662980000000     0.851980000000     0.0450295  
H360     H      0.903250000000     0.614600000000     0.641000000000     0.102891   
H361     H      0.878220000000     0.614050000000     0.142340000000     0.103529   
H362     H      0.841090000000     0.577410000000     0.346560000000     0.0396994  
H363     H      0.869730000000     0.566460000000     0.353330000000     0.0453103  
H364     H      0.831630000000     0.587550000000     0.183890000000     0.0403388  
H365     H      0.826850000000     0.588710000000     0.269030000000     0.0394716  
H366     H      0.883510000000     0.564430000000     0.123670000000     0.0433621  
H367     H      0.897680000000     0.568850000000     0.286530000000     0.0410577  
H368     H      0.902460000000     0.567720000000     0.201400000000     0.0402541  
H369     H      0.854310000000     0.572500000000     0.116400000000     0.0422187  
H370     H      0.866880000000     0.616670000000     0.328890000000     0.103406   
H371     H      0.970970000000     0.611140000000     0.023430000000     0.103025   
H372     H      0.075960000000     0.569100000000     0.043950000000     0.0426391  
H373     H      0.075180000000     0.560200000000     0.984140000000     0.0434901  
H374     H      0.997860000000     0.575720000000     0.083420000000     0.0396576  
H375     H      0.040000000000     0.575630000000     0.084010000000     0.0391953  
H376     H      0.962580000000     0.566130000000     0.975490000000     0.0450106  
H377     H      0.040500000000     0.573730000000     0.933500000000     0.0411349  
H378     H      0.998340000000     0.574000000000     0.932930000000     0.0404491  
H379     H      0.962580000000     0.563840000000     0.037350000000     0.0402048  
H380     H      0.067970000000     0.609930000000     0.988170000000     0.102919   
H381     H      0.379350000000     0.238650000000     0.549990000000     0.101976   
H382     H      0.411880000000     0.345240000000     0.462750000000     0.0454611  
H383     H      0.382930000000     0.337950000000     0.449010000000     0.0416059  
H384     H      0.426040000000     0.291280000000     0.593900000000     0.0384587  
H385     H      0.418300000000     0.329180000000     0.559780000000     0.041995   
H386     H      0.429790000000     0.241660000000     0.538010000000     0.0448275  
H387     H      0.383450000000     0.296670000000     0.444320000000     0.0386151  
H388     H      0.392100000000     0.258730000000     0.477370000000     0.0422481  
H389     H      0.421410000000     0.250300000000     0.595220000000     0.0422824  
H390     H      0.381560000000     0.350740000000     0.545030000000     0.101697   
H391     H      0.397320000000     0.217300000000     0.085640000000     0.102398   
H392     H      0.437160000000     0.318600000000     0.986120000000     0.045444   
H393     H      0.407710000000     0.313950000000     0.971350000000     0.0418323  
H394     H      0.453420000000     0.257010000000     0.096710000000     0.038607   
H395     H      0.448180000000     0.296880000000     0.070190000000     0.0420826  
H396     H      0.440860000000     0.208170000000     0.032970000000     0.0462002  
H397     H      0.398920000000     0.273760000000     0.967940000000     0.0388732  
H398     H      0.404510000000     0.233850000000     0.993800000000     0.0426104  
H399     H      0.445150000000     0.216770000000     0.092090000000     0.0402292  
H400     H      0.407420000000     0.321520000000     0.069590000000     0.102268   
H401     H      0.400240000000     0.178140000000     0.740420000000     0.102672   
H402     H      0.353550000000     0.156170000000     0.950070000000     0.0455865  
H403     H      0.352920000000     0.126620000000     0.931450000000     0.0397459  
H404     H      0.364650000000     0.199980000000     0.812480000000     0.0393311  
H405     H      0.364210000000     0.187280000000     0.894250000000     0.0404249  
H406     H      0.352830000000     0.161340000000     0.712030000000     0.047156   
H407     H      0.361360000000     0.116390000000     0.849090000000     0.0393168  
H408     H      0.361840000000     0.129090000000     0.767320000000     0.0417245  
H409     H      0.355580000000     0.190550000000     0.730360000000     0.0390245  
H410     H      0.399080000000     0.137350000000     0.919760000000     0.102842   
H411     H      0.406570000000     0.139290000000     0.240260000000     0.103394   
H412     H      0.454710000000     0.142850000000     0.450700000000     0.0426301  
H413     H      0.451940000000     0.173050000000     0.438560000000     0.042604   
H414     H      0.443110000000     0.105010000000     0.304720000000     0.0394298  
H415     H      0.443480000000     0.113590000000     0.388660000000     0.0402284  
H416     H      0.454790000000     0.147690000000     0.211990000000     0.0440573  
H417     H      0.446650000000     0.186350000000     0.358130000000     0.0399553  
H418     H      0.446390000000     0.177750000000     0.274210000000     0.041169   
H419     H      0.449990000000     0.118010000000     0.224180000000     0.0411389  
H420     H      0.407400000000     0.151790000000     0.424220000000     0.103426   
H421     H      0.391230000000     0.834570000000     0.545740000000     0.101987   
H422     H      0.329960000000     0.738130000000     0.476200000000     0.0379812  
H423     H      0.357440000000     0.739090000000     0.447900000000     0.0469249  
H424     H      0.327690000000     0.805690000000     0.572900000000     0.0384548  
H425     H      0.324810000000     0.765050000000     0.550190000000     0.0387151  
H426     H      0.347770000000     0.849790000000     0.504000000000     0.0442422  
H427     H      0.375690000000     0.775990000000     0.443040000000     0.0399443  
H428     H      0.378080000000     0.816810000000     0.464860000000     0.0415348  
H429     H      0.343280000000     0.843390000000     0.564040000000     0.042754   
H430     H      0.354550000000     0.732480000000     0.553450000000     0.101393   
H431     H      0.396400000000     0.991710000000     0.588400000000     0.10338    
H432     H      0.437660000000     0.092080000000     0.656430000000     0.0409577  
H433     H      0.448360000000     0.094940000000     0.598040000000     0.0450354  
H434     H      0.427230000000     0.012050000000     0.675880000000     0.0398394  
H435     H      0.427370000000     0.054090000000     0.686160000000     0.0391693  
H436     H      0.444310000000     0.982280000000     0.565200000000     0.0422573  
H437     H      0.440540000000     0.062810000000     0.539060000000     0.0410283  
H438     H      0.440320000000     0.020760000000     0.528770000000     0.0396987  
H439     H      0.440770000000     0.978760000000     0.626380000000     0.0418129  
H440     H      0.398030000000     0.086400000000     0.601080000000     0.102838   
H441     H      0.398930000000     0.825030000000     0.126570000000     0.10184    
H442     H      0.387110000000     0.716960000000     0.171000000000     0.0430457  
H443     H      0.358570000000     0.714140000000     0.148640000000     0.0422922  
H444     H      0.391160000000     0.796590000000     0.200990000000     0.0388627  
H445     H      0.396690000000     0.754650000000     0.199430000000     0.0385248  
H446     H      0.346890000000     0.827930000000     0.127810000000     0.046477   
H447     H      0.345780000000     0.748910000000     0.090690000000     0.0413396  
H448     H      0.340660000000     0.790900000000     0.091490000000     0.0404077  
H449     H      0.361490000000     0.829090000000     0.182450000000     0.0385643  
H450     H      0.386740000000     0.728240000000     0.071230000000     0.103003   
H451     H      0.371010000000     0.907440000000     0.720240000000     0.102415   
H452     H      0.380810000000     0.834850000000     0.902720000000     0.0347317  
H453     H      0.403200000000     0.851830000000     0.928910000000     0.0481052  
H454     H      0.383450000000     0.859350000000     0.747900000000     0.0430674  
H455     H      0.374750000000     0.839500000000     0.821360000000     0.0389571  
H456     H      0.416200000000     0.916090000000     0.741920000000     0.0390014  
H457     H      0.405880000000     0.895260000000     0.898380000000     0.0493499  
H458     H      0.414350000000     0.915230000000     0.824910000000     0.0386044  
H459     H      0.419100000000     0.887920000000     0.717810000000     0.0468924  
H460     H      0.351790000000     0.861850000000     0.929020000000     0.101122   
H461     H      0.386710000000     0.927210000000     0.409010000000     0.102946   
H462     H      0.422460000000     0.947920000000     0.192580000000     0.0380074  
H463     H      0.430190000000     0.918060000000     0.187090000000     0.0475527  
H464     H      0.423050000000     0.959050000000     0.354870000000     0.0398138  
H465     H      0.420630000000     0.963950000000     0.269880000000     0.0384259  
H466     H      0.430090000000     0.901430000000     0.413210000000     0.0432436  
H467     H      0.415420000000     0.890220000000     0.253090000000     0.043089   
H468     H      0.417700000000     0.885340000000     0.338120000000     0.0397905  
H469     H      0.435850000000     0.931350000000     0.418840000000     0.0417537  
H470     H      0.380320000000     0.930580000000     0.205230000000     0.101778   
H471     H      0.396950000000     0.963350000000     0.984410000000     0.100947   
H472     H      0.357380000000     0.069900000000     0.081430000000     0.0475338  
H473     H      0.370570000000     0.055990000000     0.130530000000     0.0390366  
H474     H      0.365500000000     0.015120000000     0.955790000000     0.0384952  
H475     H      0.369980000000     0.051610000000     0.998090000000     0.0427752  
H476     H      0.345270000000     0.962900000000     0.005620000000     0.0484876  
H477     H      0.368600000000     0.014800000000     0.128920000000     0.0390073  
H478     H      0.363850000000     0.978310000000     0.086630000000     0.0471057  
H479     H      0.358500000000     0.974840000000     0.954680000000     0.035373   
H480     H      0.408120000000     0.059060000000     0.074820000000     0.102374   
N1       N      0.926630000000     0.353510000000     0.827540000000    -0.213445   
N2       N      0.885750000000     0.361830000000     0.608080000000    -0.213634   
N3       N      0.909380000000     0.386060000000     0.097560000000    -0.213641   
N4       N      0.895460000000     0.389440000000     0.334310000000    -0.213836   
N5       N      0.071530000000     0.355440000000     0.453530000000    -0.213769   
N6       N      0.956470000000     0.356670000000     0.474160000000    -0.213802   
N7       N      0.150000000000     0.382210000000     0.810250000000    -0.213461   
N8       N      0.146380000000     0.383110000000     0.567070000000    -0.213284   
N9       N      0.188250000000     0.365760000000     0.077530000000    -0.213336   
N10      N      0.128220000000     0.359270000000     0.293340000000    -0.21312    
N11      N      0.985400000000     0.359300000000     0.985660000000    -0.213691   
N12      N      0.103330000000     0.359850000000     0.979310000000    -0.213558   
N13      N      0.704560000000     0.418130000000     0.494870000000    -0.213693   
N14      N      0.824080000000     0.394870000000     0.468750000000    -0.213884   
N15      N      0.635230000000     0.595450000000     0.480380000000    -0.214011   
N16      N      0.631080000000     0.481360000000     0.480740000000    -0.213779   
N17      N      0.731160000000     0.388800000000     0.008910000000    -0.213678   
N18      N      0.851190000000     0.380140000000     0.937850000000    -0.212903   
N19      N      0.655370000000     0.580570000000     0.073910000000    -0.21347    
N20      N      0.669540000000     0.460660000000     0.061270000000    -0.213466   
N21      N      0.448960000000     0.698750000000     0.497230000000    -0.213104   
N22      N      0.564370000000     0.660900000000     0.508380000000    -0.21365    
N23      N      0.464370000000     0.658950000000     0.101310000000    -0.213349   
N24      N      0.580350000000     0.642690000000     0.097590000000    -0.213547   
N25      N      0.320250000000     0.419110000000     0.447030000000    -0.213571   
N26      N      0.203350000000     0.387790000000     0.405020000000    -0.213434   
N27      N      0.452750000000     0.427610000000     0.521980000000    -0.213775   
N28      N      0.568760000000     0.412180000000     0.540820000000    -0.21338    
N29      N      0.418840000000     0.605550000000     0.475090000000    -0.212878   
N30      N      0.386650000000     0.491990000000     0.457690000000    -0.213304   
N31      N      0.233970000000     0.387970000000     0.910630000000    -0.21378    
N32      N      0.351250000000     0.399970000000     0.982120000000    -0.213763   
N33      N      0.482410000000     0.395050000000     0.067050000000    -0.213877   
N34      N      0.597360000000     0.395660000000     0.074340000000    -0.213787   
N35      N      0.420620000000     0.466070000000     0.013160000000    -0.213651   
N36      N      0.411980000000     0.584080000000     0.032640000000    -0.21366    
N37      N      0.629590000000     0.727450000000     0.563450000000    -0.213841   
N38      N      0.615040000000     0.845570000000     0.629980000000    -0.213109   
N39      N      0.616780000000     0.838990000000     0.046160000000    -0.213276   
N40      N      0.637780000000     0.717400000000     0.050850000000    -0.213792   
N41      N      0.590980000000     0.923380000000     0.962320000000    -0.213761   
N42      N      0.592320000000     0.928210000000     0.724430000000    -0.213585   
N43      N      0.623670000000     0.883840000000     0.222480000000    -0.213131   
N44      N      0.623540000000     0.895340000000     0.459770000000    -0.213598   
N45      N      0.643470000000     0.348460000000     0.554220000000    -0.213897   
N46      N      0.631190000000     0.231750000000     0.593270000000    -0.2137     
N47      N      0.601530000000     0.978300000000     0.555410000000    -0.213642   
N48      N      0.606760000000     0.097110000000     0.551760000000    -0.213463   
N49      N      0.658570000000     0.323950000000     0.022750000000    -0.213336   
N50      N      0.616990000000     0.208500000000     0.009120000000    -0.212949   
N51      N      0.586760000000     0.120230000000     0.945880000000    -0.213103   
N52      N      0.608760000000     0.156720000000     0.709760000000    -0.213365   
N53      N      0.626000000000     0.171810000000     0.193540000000    -0.213196   
N54      N      0.629960000000     0.172380000000     0.434490000000    -0.213386   
N55      N      0.596710000000     0.084660000000     0.127410000000    -0.21353    
N56      N      0.597740000000     0.968460000000     0.137550000000    -0.213396   
N57      N      0.204430000000     0.611850000000     0.499250000000    -0.213545   
N58      N      0.326050000000     0.636080000000     0.495190000000    -0.213607   
N59      N      0.214600000000     0.615230000000     0.964590000000    -0.213525   
N60      N      0.332540000000     0.640150000000     0.028790000000    -0.213622   
N61      N      0.141970000000     0.586060000000     0.845260000000    -0.213866   
N62      N      0.130240000000     0.584310000000     0.613280000000    -0.213735   
N63      N      0.151220000000     0.624790000000     0.113490000000    -0.213781   
N64      N      0.143430000000     0.623530000000     0.346030000000    -0.213765   
N65      N      0.819860000000     0.632080000000     0.517100000000    -0.213516   
N66      N      0.701630000000     0.661550000000     0.533920000000    -0.213601   
N67      N      0.950150000000     0.599470000000     0.453730000000    -0.213367   
N68      N      0.068860000000     0.595760000000     0.460780000000    -0.213635   
N69      N      0.828540000000     0.628880000000     0.956910000000    -0.212912   
N70      N      0.712960000000     0.656090000000     0.026250000000    -0.213171   
N71      N      0.910710000000     0.626480000000     0.851790000000    -0.213637   
N72      N      0.903560000000     0.628350000000     0.617320000000    -0.21371    
N73      N      0.877630000000     0.600390000000     0.118490000000    -0.213648   
N74      N      0.866580000000     0.602900000000     0.352510000000    -0.21359    
N75      N      0.960110000000     0.597900000000     0.012100000000    -0.213564   
N76      N      0.078900000000     0.595960000000     0.994600000000    -0.213612   
N77      N      0.395850000000     0.232630000000     0.557650000000    -0.213621   
N78      N      0.387250000000     0.356180000000     0.512200000000    -0.213676   
N79      N      0.411280000000     0.206890000000     0.076420000000    -0.213646   
N80      N      0.413320000000     0.328370000000     0.038010000000    -0.213547   
N81      N      0.387140000000     0.174160000000     0.716780000000    -0.213128   
N82      N      0.385950000000     0.139720000000     0.944230000000    -0.213651   
N83      N      0.419800000000     0.137710000000     0.215740000000    -0.213615   
N84      N      0.420710000000     0.155190000000     0.447770000000    -0.213896   
N85      N      0.378010000000     0.846770000000     0.544570000000    -0.21361    
N86      N      0.357210000000     0.727540000000     0.518750000000    -0.212935   
N87      N      0.409830000000     0.979720000000     0.587850000000    -0.213838   
N88      N      0.412280000000     0.097210000000     0.605160000000    -0.213504   
N89      N      0.383070000000     0.833420000000     0.124160000000    -0.213056   
N90      N      0.384360000000     0.715870000000     0.097380000000    -0.213589   
N91      N      0.387130000000     0.904670000000     0.705150000000    -0.213328   
N92      N      0.368910000000     0.863890000000     0.939180000000    -0.212681   
N93      N      0.401080000000     0.922120000000     0.428350000000    -0.213505   
N94      N      0.394400000000     0.925460000000     0.185030000000    -0.21316    
N95      N      0.381520000000     0.957130000000     0.998170000000    -0.213023   
N96      N      0.393880000000     0.069550000000     0.081580000000    -0.213309   
O1       O      0.362800000000     0.928050000000     0.036480000000    -0.401443   
O2       O      0.363470000000     0.865420000000     0.099660000000    -0.399956   
O3       O      0.369490000000     0.912070000000     0.130280000000    -0.402352   
O4       O      0.356650000000     0.881430000000     0.005660000000    -0.401854   
O5       O      0.394310000000     0.878130000000     0.992880000000    -0.402167   
O6       O      0.407160000000     0.909440000000     0.116790000000    -0.400891   
O7       O      0.401180000000     0.862710000000     0.086610000000    -0.403262   
O8       O      0.400410000000     0.925040000000     0.022660000000    -0.40313    
O9       O      0.367360000000     0.884440000000     0.552770000000    -0.401368   
O10      O      0.383550000000     0.951490000000     0.574910000000    -0.402206   
O11      O      0.379100000000     0.922590000000     0.494070000000    -0.400625   
O12      O      0.371900000000     0.913200000000     0.633940000000    -0.4003     
O13      O      0.409100000000     0.904250000000     0.639110000000    -0.402039   
O14      O      0.416100000000     0.912830000000     0.499540000000    -0.401768   
O15      O      0.420680000000     0.942090000000     0.579650000000    -0.401406   
O16      O      0.404370000000     0.874830000000     0.559120000000    -0.402127   
O17      O      0.379850000000     0.106080000000     0.090740000000    -0.401565   
O18      O      0.388880000000     0.175380000000     0.088730000000    -0.402412   
O19      O      0.375760000000     0.141400000000     0.021200000000    -0.401451   
O20      O      0.393030000000     0.140100000000     0.158250000000    -0.402243   
O21      O      0.429880000000     0.135390000000     0.138810000000    -0.401167   
O22      O      0.412540000000     0.136130000000     0.001800000000    -0.402522   
O23      O      0.425600000000     0.170390000000     0.068580000000    -0.400663   
O24      O      0.416690000000     0.101020000000     0.071780000000    -0.401764   
O25      O      0.389790000000     0.127730000000     0.585150000000    -0.401793   
O26      O      0.381370000000     0.196260000000     0.561900000000    -0.401593   
O27      O      0.394090000000     0.157370000000     0.505540000000    -0.402508   
O28      O      0.376990000000     0.166610000000     0.641280000000    -0.401914   
O29      O      0.413830000000     0.172830000000     0.658870000000    -0.40171    
O30      O      0.431050000000     0.162990000000     0.523070000000    -0.401265   
O31      O      0.418410000000     0.202090000000     0.578390000000    -0.401548   
O32      O      0.426610000000     0.133840000000     0.603160000000    -0.401818   
O33      O      0.930910000000     0.623860000000     0.008470000000    -0.401571   
O34      O      0.864580000000     0.639810000000     0.979710000000    -0.400743   
O35      O      0.889140000000     0.625190000000     0.061630000000    -0.40194    
O36      O      0.906280000000     0.638450000000     0.927180000000    -0.401599   
O37      O      0.899040000000     0.601740000000     0.908600000000    -0.402579   
O38      O      0.882610000000     0.588310000000     0.043340000000    -0.401711   
O39      O      0.857570000000     0.602880000000     0.962780000000    -0.402571   
O40      O      0.924060000000     0.587130000000     0.989550000000    -0.401988   
O41      O      0.855390000000     0.642210000000     0.491270000000    -0.401635   
O42      O      0.921360000000     0.625790000000     0.460020000000    -0.401554   
O43      O      0.879070000000     0.627470000000     0.408800000000    -0.40237    
O44      O      0.897700000000     0.640560000000     0.542470000000    -0.401378   
O45      O      0.891030000000     0.603750000000     0.561110000000    -0.403049   
O46      O      0.871930000000     0.590780000000     0.427630000000    -0.401964   
O47      O      0.914310000000     0.589000000000     0.478170000000    -0.401743   
O48      O      0.848640000000     0.605520000000     0.510730000000    -0.401447   
O49      O      0.109320000000     0.618910000000     0.976670000000    -0.401414   
O50      O      0.177910000000     0.628560000000     0.961060000000    -0.40184    
O51      O      0.141270000000     0.613840000000     0.901160000000    -0.402143   
O52      O      0.145950000000     0.633640000000     0.036530000000    -0.401191   
O53      O      0.152150000000     0.597060000000     0.057510000000    -0.403075   
O54      O      0.147560000000     0.577270000000     0.922130000000    -0.401778   
O55      O      0.184100000000     0.592020000000     0.982220000000    -0.402013   
O56      O      0.115640000000     0.582320000000     0.997500000000    -0.401656   
O57      O      0.099500000000     0.618100000000     0.480080000000    -0.402021   
O58      O      0.167920000000     0.626240000000     0.500530000000    -0.40113    
O59      O      0.137330000000     0.632270000000     0.422800000000    -0.401161   
O60      O      0.130110000000     0.612130000000     0.557490000000    -0.402816   
O61      O      0.136460000000     0.575580000000     0.536530000000    -0.401691   
O62      O      0.142800000000     0.595600000000     0.401590000000    -0.402672   
O63      O      0.173860000000     0.589830000000     0.478110000000    -0.402485   
O64      O      0.105360000000     0.581370000000     0.459780000000    -0.401161   
O65      O      0.594070000000     0.183010000000     0.047400000000    -0.401477   
O66      O      0.583340000000     0.120190000000     0.105910000000    -0.400196   
O67      O      0.598460000000     0.164230000000     0.139510000000    -0.401754   
O68      O      0.578790000000     0.138980000000     0.013690000000    -0.401952   
O69      O      0.614930000000     0.128360000000     0.999050000000    -0.40195    
O70      O      0.634860000000     0.155040000000     0.123530000000    -0.400668   
O71      O      0.619860000000     0.110730000000     0.091670000000    -0.403172   
O72      O      0.630070000000     0.172820000000     0.030290000000    -0.402395   
O73      O      0.594330000000     0.134340000000     0.556810000000    -0.402193   
O74      O      0.606900000000     0.202240000000     0.576930000000    -0.403224   
O75      O      0.606080000000     0.172260000000     0.497390000000    -0.400946   
O76      O      0.595300000000     0.164210000000     0.636620000000    -0.400963   
O77      O      0.632570000000     0.156570000000     0.646460000000    -0.402044   
O78      O      0.643340000000     0.164740000000     0.507820000000    -0.401505   
O79      O      0.644120000000     0.194630000000     0.587810000000    -0.40062    
O80      O      0.631570000000     0.126530000000     0.566850000000    -0.401359   
O81      O      0.584000000000     0.932270000000     0.122980000000    -0.401527   
O82      O      0.593510000000     0.867080000000     0.075980000000    -0.401514   
O83      O      0.597210000000     0.889470000000     0.165210000000    -0.401876   
O84      O      0.580440000000     0.909880000000     0.034120000000    -0.40167    
O85      O      0.617350000000     0.917440000000     0.019500000000    -0.402523   
O86      O      0.634000000000     0.897690000000     0.150850000000    -0.401786   
O87      O      0.630520000000     0.874780000000     0.062680000000    -0.40157    
O88      O      0.620760000000     0.940360000000     0.107950000000    -0.401855   
O89      O      0.586150000000     0.942390000000     0.565320000000    -0.401271   
O90      O      0.592810000000     0.875430000000     0.603900000000    -0.401331   
O91      O      0.581460000000     0.917420000000     0.651020000000    -0.402616   
O92      O      0.597410000000     0.900380000000     0.517780000000    -0.40269    
O93      O      0.634530000000     0.906600000000     0.532850000000    -0.400948   
O94      O      0.618620000000     0.922920000000     0.666700000000    -0.401666   
O95      O      0.630070000000     0.881220000000     0.618040000000    -0.402729   
O96      O      0.623220000000     0.948350000000     0.581310000000    -0.402695   
O97      O      0.455600000000     0.394480000000     0.009510000000    -0.403262   
O98      O      0.389310000000     0.395990000000     0.966740000000    -0.403072   
O99      O      0.424250000000     0.430030000000     0.981840000000    -0.401476   
O100     O      0.420770000000     0.360520000000     0.994540000000    -0.401374   
O101     O      0.408710000000     0.364380000000     0.068160000000    -0.401845   
O102     O      0.413300000000     0.433950000000     0.056160000000    -0.402477   
O103     O      0.377900000000     0.400660000000     0.040600000000    -0.400892   
O104     O      0.444150000000     0.397860000000     0.083640000000    -0.400867   
O105     O      0.358410000000     0.417840000000     0.428620000000    -0.401304   
O106     O      0.425260000000     0.422770000000     0.466590000000    -0.402914   
O107     O      0.392470000000     0.386180000000     0.461660000000    -0.401459   
O108     O      0.391380000000     0.454690000000     0.433640000000    -0.400958   
O109     O      0.381320000000     0.461930000000     0.507450000000    -0.401747   
O110     O      0.380930000000     0.393270000000     0.534640000000    -0.402292   
O111     O      0.414600000000     0.429300000000     0.540350000000    -0.400694   
O112     O      0.347710000000     0.425910000000     0.501700000000    -0.401941   
O113     O      0.361040000000     0.639630000000     0.083510000000    -0.401881   
O114     O      0.427440000000     0.649560000000     0.120420000000    -0.401219   
O115     O      0.386990000000     0.677910000000     0.118340000000    -0.400527   
O116     O      0.401330000000     0.611370000000     0.085410000000    -0.401984   
O117     O      0.409230000000     0.622030000000     0.012200000000    -0.401498   
O118     O      0.395780000000     0.688550000000     0.045540000000    -0.402584   
O119     O      0.435810000000     0.659810000000     0.047200000000    -0.401556   
O120     O      0.369100000000     0.650700000000     0.010640000000    -0.401876   
O121     O      0.357960000000     0.648370000000     0.534410000000    -0.401215   
O122     O      0.420170000000     0.679620000000     0.535300000000    -0.402349   
O123     O      0.373790000000     0.694720000000     0.545840000000    -0.403032   
O124     O      0.404560000000     0.632960000000     0.523850000000    -0.402799   
O125     O      0.402460000000     0.638580000000     0.446860000000    -0.40168    
O126     O      0.370920000000     0.699970000000     0.468830000000    -0.401089   
O127     O      0.417670000000     0.685270000000     0.458370000000    -0.402158   
O128     O      0.355750000000     0.653250000000     0.457200000000    -0.402799   
O129     O      0.702410000000     0.387830000000     0.062630000000    -0.402003   
O130     O      0.634810000000     0.391030000000     0.095980000000    -0.401185   
O131     O      0.665620000000     0.354830000000     0.069530000000    -0.402102   
O132     O      0.671410000000     0.423810000000     0.089100000000    -0.401705   
O133     O      0.662740000000     0.429810000000     0.014110000000    -0.401373   
O134     O      0.657180000000     0.360750000000     0.994400000000    -0.401109   
O135     O      0.626170000000     0.396890000000     0.020920000000    -0.402526   
O136     O      0.693680000000     0.393470000000     0.987550000000    -0.401661   
O137     O      0.636550000000     0.376040000000     0.499790000000    -0.402841   
O138     O      0.631200000000     0.443110000000     0.461830000000    -0.401542   
O139     O      0.668260000000     0.410760000000     0.469460000000    -0.401495   
O140     O      0.599510000000     0.408390000000     0.492440000000    -0.401285   
O141     O      0.605290000000     0.418360000000     0.566850000000    -0.402128   
O142     O      0.673670000000     0.422230000000     0.543100000000    -0.402683   
O143     O      0.636080000000     0.453760000000     0.536130000000    -0.402884   
O144     O      0.643120000000     0.386690000000     0.573550000000    -0.401285   
O145     O      0.675340000000     0.650840000000     0.006160000000    -0.400735   
O146     O      0.608550000000     0.643030000000     0.042800000000    -0.402173   
O147     O      0.637140000000     0.681330000000     0.018820000000    -0.400889   
O148     O      0.646680000000     0.612240000000     0.030350000000    -0.401033   
O149     O      0.655390000000     0.616640000000     0.105770000000    -0.401918   
O150     O      0.647600000000     0.685790000000     0.093310000000    -0.402699   
O151     O      0.617930000000     0.648180000000     0.117700000000    -0.401147   
O152     O      0.684970000000     0.654070000000     0.081360000000    -0.402304   
O153     O      0.669300000000     0.667510000000     0.491160000000    -0.4019     
O154     O      0.599940000000     0.667120000000     0.478200000000    -0.402258   
O155     O      0.633530000000     0.700660000000     0.506020000000    -0.401732   
O156     O      0.635730000000     0.633960000000     0.463420000000    -0.400527   
O157     O      0.632800000000     0.622390000000     0.537590000000    -0.403965   
O158     O      0.629660000000     0.688920000000     0.579880000000    -0.402389   
O159     O      0.596710000000     0.655110000000     0.551980000000    -0.402255   
O160     O      0.665960000000     0.656080000000     0.565300000000    -0.401547   
O161     O      0.204630000000     0.362520000000     0.919580000000    -0.402064   
O162     O      0.138880000000     0.348050000000     0.955520000000    -0.401117   
O163     O      0.162050000000     0.359420000000     0.870050000000    -0.401459   
O164     O      0.181540000000     0.351180000000     0.005060000000    -0.401734   
O165     O      0.174870000000     0.388530000000     0.018320000000    -0.402674   
O166     O      0.155890000000     0.396870000000     0.883310000000    -0.40133    
O167     O      0.132340000000     0.385500000000     0.968160000000    -0.402978   
O168     O      0.198320000000     0.399840000000     0.933860000000    -0.402226   
O169     O      0.165930000000     0.398080000000     0.413180000000    -0.403374   
O170     O      0.099310000000     0.381670000000     0.436850000000    -0.40312    
O171     O      0.137100000000     0.395800000000     0.494000000000    -0.401238   
O172     O      0.128110000000     0.383870000000     0.355810000000    -0.401944   
O173     O      0.137610000000     0.346920000000     0.366190000000    -0.402044   
O174     O      0.147240000000     0.359000000000     0.504370000000    -0.401075   
O175     O      0.109180000000     0.344820000000     0.447610000000    -0.400724   
O176     O      0.175740000000     0.361120000000     0.422380000000    -0.40051    
O177     O      0.880830000000     0.356340000000     0.958240000000    -0.40155    
O178     O      0.948530000000     0.345940000000     0.983120000000    -0.401348   
O179     O      0.909980000000     0.359550000000     0.039030000000    -0.401897   
O180     O      0.919260000000     0.342840000000     0.902880000000    -0.402147   
O181     O      0.926080000000     0.379840000000     0.886270000000    -0.402543   
O182     O      0.917500000000     0.396440000000     0.022520000000    -0.401852   
O183     O      0.955720000000     0.382820000000     0.965960000000    -0.40213    
O184     O      0.887810000000     0.393480000000     0.943220000000    -0.402155   
O185     O      0.851680000000     0.367350000000     0.461480000000    -0.401836   
O186     O      0.918550000000     0.347860000000     0.464170000000    -0.401215   
O187     O      0.882550000000     0.350560000000     0.531900000000    -0.401692   
O188     O      0.887790000000     0.364610000000     0.393680000000    -0.402388   
O189     O      0.898010000000     0.400810000000     0.410440000000    -0.402013   
O190     O      0.892800000000     0.386750000000     0.548580000000    -0.402925   
O191     O      0.928810000000     0.384080000000     0.480670000000    -0.403266   
O192     O      0.862040000000     0.403490000000     0.478320000000    -0.402447   


