data_structure

_audit_creation_method RASPA-1.0
_audit_creation_date 2023-5-23
_audit_author_name 'Poobodin Mano'

_cell_length_a    41.8865
_cell_length_b    41.8873
_cell_length_c    41.2834
_cell_angle_alpha 90.0028
_cell_angle_beta  89.9974
_cell_angle_gamma 89.9941
_cell_volume      72432.2

_symmetry_cell_setting          triclinic
_symmetry_space_group_name_Hall 'P 1'
_symmetry_space_group_name_H-M  'P 1'
_symmetry_Int_Tables_number     1

_symmetry_equiv_pos_as_xyz 'x,y,z'

loop_
_atom_site_label
_atom_site_type_symbol
_atom_site_fract_x
_atom_site_fract_y
_atom_site_fract_z
_atom_site_charge
C1       C      0.450670000000     0.312400000000     0.932470000000     0.403721   
C2       C      0.539830000000     0.312580000000     0.024060000000     0.403508   
C3       C      0.450610000000     0.312410000000     0.024000000000     0.403462   
C4       C      0.539890000000     0.312570000000     0.932540000000     0.403565   
C5       C      0.216900000000     0.635410000000     0.932290000000     0.403267   
C6       C      0.216740000000     0.546210000000     0.023840000000     0.40339    
C7       C      0.216850000000     0.635430000000     0.023820000000     0.403576   
C8       C      0.216780000000     0.546190000000     0.932300000000     0.403641   
C9       C      0.540740000000     0.870370000000     0.023960000000     0.403583   
C10      C      0.451580000000     0.870180000000     0.932370000000     0.403612   
C11      C      0.540800000000     0.870350000000     0.932430000000     0.403737   
C12      C      0.451510000000     0.870190000000     0.023890000000     0.403443   
C13      C      0.774660000000     0.636560000000     0.932610000000     0.403405   
C14      C      0.774510000000     0.547350000000     0.024150000000     0.403568   
C15      C      0.774620000000     0.636570000000     0.024140000000     0.4035     
C16      C      0.774550000000     0.547330000000     0.932630000000     0.403613   
C17      C      0.274490000000     0.046180000000     0.523820000000     0.403706   
C18      C      0.274330000000     0.135430000000     0.432320000000     0.403494   
C19      C      0.274440000000     0.046210000000     0.432290000000     0.40376    
C20      C      0.274380000000     0.135400000000     0.523840000000     0.403639   
C21      C      0.951520000000     0.812750000000     0.432440000000     0.403465   
C22      C      0.040800000000     0.812560000000     0.523910000000     0.403086   
C23      C      0.951580000000     0.812730000000     0.523970000000     0.403256   
C24      C      0.040740000000     0.812580000000     0.432370000000     0.403319   
C25      C      0.717070000000     0.047340000000     0.524120000000     0.403677   
C26      C      0.716900000000     0.136580000000     0.432610000000     0.403697   
C27      C      0.717010000000     0.047360000000     0.432600000000     0.403712   
C28      C      0.716960000000     0.136560000000     0.524150000000     0.403672   
C29      C      0.950600000000     0.370200000000     0.432530000000     0.403429   
C30      C      0.039890000000     0.370010000000     0.523990000000     0.40322    
C31      C      0.950670000000     0.370190000000     0.524070000000     0.403396   
C32      C      0.039820000000     0.370030000000     0.432460000000     0.403241   
C33      C      0.230930000000     0.389460000000     0.189350000000     0.403535   
C34      C      0.259540000000     0.292530000000     0.267190000000     0.403367   
C35      C      0.293720000000     0.326670000000     0.189380000000     0.403497   
C36      C      0.196750000000     0.355330000000     0.267170000000     0.403417   
C37      C      0.696880000000     0.327410000000     0.189230000000     0.403434   
C38      C      0.793820000000     0.356050000000     0.267050000000     0.403269   
C39      C      0.759670000000     0.390210000000     0.189230000000     0.403439   
C40      C      0.731050000000     0.293270000000     0.267050000000     0.403438   
C41      C      0.697090000000     0.327410000000     0.767500000000     0.403538   
C42      C      0.794040000000     0.356050000000     0.689690000000     0.403644   
C43      C      0.759880000000     0.390210000000     0.767510000000     0.403312   
C44      C      0.731260000000     0.293270000000     0.689680000000     0.403329   
C45      C      0.697450000000     0.856200000000     0.189500000000     0.403271   
C46      C      0.794380000000     0.827600000000     0.267350000000     0.403593   
C47      C      0.760240000000     0.793420000000     0.189540000000     0.403426   
C48      C      0.731580000000     0.890390000000     0.267330000000     0.403494   
C49      C      0.760460000000     0.793300000000     0.767100000000     0.403367   
C50      C      0.731870000000     0.890220000000     0.689240000000     0.403462   
C51      C      0.697680000000     0.856090000000     0.767050000000     0.403291   
C52      C      0.794660000000     0.827420000000     0.689280000000     0.403399   
C53      C      0.231530000000     0.792560000000     0.188930000000     0.403501   
C54      C      0.260150000000     0.889500000000     0.266750000000     0.403231   
C55      C      0.294320000000     0.855350000000     0.188930000000     0.403415   
C56      C      0.197370000000     0.826720000000     0.266750000000     0.403504   
C57      C      0.231730000000     0.792550000000     0.767220000000     0.403486   
C58      C      0.260350000000     0.889490000000     0.689380000000     0.403549   
C59      C      0.294520000000     0.855350000000     0.767210000000     0.403534   
C60      C      0.197580000000     0.826710000000     0.689390000000     0.403446   
C61      C      0.293950000000     0.326550000000     0.766930000000     0.403319   
C62      C      0.197010000000     0.355170000000     0.689090000000     0.40322    
C63      C      0.231160000000     0.389340000000     0.766910000000     0.403411   
C64      C      0.259810000000     0.292370000000     0.689110000000     0.403359   
C65      C      0.083510000000     0.395810000000     0.556210000000    -0.0225521  
C66      C      0.145730000000     0.338600000000     0.664600000000    -0.0225563  
C67      C      0.171320000000     0.386750000000     0.644510000000    -0.022755   
C68      C      0.142210000000     0.379300000000     0.625280000000     0.0135115  
C69      C      0.128740000000     0.350920000000     0.635800000000     0.0144388  
C70      C      0.103570000000     0.336440000000     0.619060000000    -0.0665502  
C71      C      0.066280000000     0.341990000000     0.569610000000    -0.0226859  
C72      C      0.128930000000     0.396510000000     0.599360000000    -0.0653557  
C73      C      0.091330000000     0.352860000000     0.592310000000     0.0146861  
C74      C      0.102490000000     0.382830000000     0.583690000000     0.0135125  
C75      C      0.171060000000     0.386900000000     0.311760000000    -0.0227597  
C76      C      0.066140000000     0.342050000000     0.386770000000    -0.0226467  
C77      C      0.083380000000     0.395860000000     0.400190000000    -0.0224772  
C78      C      0.102310000000     0.382910000000     0.372670000000     0.0135033  
C79      C      0.091160000000     0.352950000000     0.364040000000     0.0146853  
C80      C      0.103370000000     0.336540000000     0.337260000000    -0.0666035  
C81      C      0.145470000000     0.338740000000     0.291670000000    -0.0226849  
C82      C      0.128730000000     0.396610000000     0.356980000000    -0.0653611  
C83      C      0.128520000000     0.351040000000     0.320510000000     0.0145093  
C84      C      0.141980000000     0.379420000000     0.331030000000     0.0134945  
C85      C      0.924200000000     0.342320000000     0.386830000000    -0.0225977  
C86      C      0.819510000000     0.387540000000     0.311700000000    -0.0228067  
C87      C      0.845050000000     0.339360000000     0.291590000000    -0.0225626  
C88      C      0.861980000000     0.351580000000     0.320460000000     0.0142666  
C89      C      0.848560000000     0.379980000000     0.331000000000     0.0134697  
C90      C      0.861790000000     0.397100000000     0.357000000000    -0.065504   
C91      C      0.907090000000     0.396180000000     0.400290000000    -0.022509   
C92      C      0.887050000000     0.336990000000     0.337250000000    -0.0666267  
C93      C      0.888150000000     0.383300000000     0.372730000000     0.0133733  
C94      C      0.899250000000     0.353320000000     0.364080000000     0.0144185  
C95      C      0.924320000000     0.342310000000     0.569800000000    -0.0225297  
C96      C      0.819720000000     0.387550000000     0.645040000000    -0.0227814  
C97      C      0.845260000000     0.339360000000     0.665140000000    -0.0225856  
C98      C      0.862180000000     0.351580000000     0.636250000000     0.0142748  
C99      C      0.848750000000     0.379980000000     0.625720000000     0.0134725  
C100     C      0.861960000000     0.397100000000     0.599710000000    -0.0655     
C101     C      0.907210000000     0.396160000000     0.556370000000    -0.0224781  
C102     C      0.887220000000     0.336980000000     0.619430000000    -0.0666263  
C103     C      0.888300000000     0.383300000000     0.583950000000     0.0133767  
C104     C      0.899400000000     0.353310000000     0.592590000000     0.0143865  
C105     C      0.744880000000     0.162920000000     0.569850000000    -0.0225871  
C106     C      0.699730000000     0.267590000000     0.645060000000    -0.0228908  
C107     C      0.747930000000     0.242040000000     0.665130000000    -0.0225766  
C108     C      0.735680000000     0.225110000000     0.636260000000     0.0143402  
C109     C      0.707280000000     0.238550000000     0.625750000000     0.0135089  
C110     C      0.690140000000     0.225320000000     0.599750000000    -0.0654248  
C111     C      0.691020000000     0.180050000000     0.556450000000    -0.0225307  
C112     C      0.750260000000     0.200050000000     0.619450000000    -0.0666039  
C113     C      0.703920000000     0.198970000000     0.584010000000     0.0134641  
C114     C      0.733900000000     0.187860000000     0.592620000000     0.0144887  
C115     C      0.699560000000     0.267600000000     0.311720000000    -0.0227555  
C116     C      0.744770000000     0.162940000000     0.386890000000    -0.0225016  
C117     C      0.690930000000     0.180070000000     0.400350000000    -0.0225419  
C118     C      0.703790000000     0.198990000000     0.372770000000     0.0134711  
C119     C      0.733780000000     0.187880000000     0.364120000000     0.0144675  
C120     C      0.750110000000     0.200070000000     0.337290000000    -0.066583   
C121     C      0.747740000000     0.242050000000     0.291610000000    -0.0226242  
C122     C      0.690010000000     0.225340000000     0.357040000000    -0.0654403  
C123     C      0.735530000000     0.225150000000     0.320500000000     0.0143542  
C124     C      0.707130000000     0.238570000000     0.331040000000     0.0134831  
C125     C      0.744960000000     0.021000000000     0.386910000000    -0.0222912  
C126     C      0.700030000000     0.916100000000     0.311930000000    -0.0228297  
C127     C      0.748180000000     0.941680000000     0.291810000000    -0.0225366  
C128     C      0.735900000000     0.958650000000     0.320640000000     0.0142781  
C129     C      0.707520000000     0.945180000000     0.331180000000     0.0135115  
C130     C      0.690350000000     0.958430000000     0.357140000000    -0.065421   
C131     C      0.691140000000     0.003790000000     0.400360000000    -0.0220981  
C132     C      0.750420000000     0.983780000000     0.337390000000    -0.0665412  
C133     C      0.704070000000     0.984840000000     0.372830000000     0.0132382  
C134     C      0.734040000000     0.995990000000     0.364180000000     0.0142802  
C135     C      0.700300000000     0.915920000000     0.644640000000    -0.0228795  
C136     C      0.745080000000     0.020960000000     0.569750000000    -0.0223312  
C137     C      0.691250000000     0.003740000000     0.556360000000    -0.0220668  
C138     C      0.704230000000     0.984760000000     0.583830000000     0.0132278  
C139     C      0.734200000000     0.995910000000     0.592450000000     0.0142818  
C140     C      0.750630000000     0.983650000000     0.619200000000    -0.0665576  
C141     C      0.748470000000     0.941500000000     0.664730000000    -0.0226263  
C142     C      0.690550000000     0.958310000000     0.599500000000    -0.0654255  
C143     C      0.736160000000     0.958480000000     0.635920000000     0.0143149  
C144     C      0.707770000000     0.945030000000     0.625410000000     0.0135138  
C145     C      0.067080000000     0.840460000000     0.386640000000    -0.0228013  
C146     C      0.171690000000     0.795220000000     0.311400000000    -0.0227748  
C147     C      0.146150000000     0.843410000000     0.291310000000    -0.0225978  
C148     C      0.129230000000     0.831190000000     0.320190000000     0.0144558  
C149     C      0.142660000000     0.802790000000     0.330720000000     0.0135424  
C150     C      0.129450000000     0.785670000000     0.356730000000    -0.0654004  
C151     C      0.084200000000     0.786600000000     0.400070000000    -0.0225147  
C152     C      0.104180000000     0.845780000000     0.337010000000    -0.0665755  
C153     C      0.103110000000     0.799470000000     0.372490000000     0.0134982  
C154     C      0.092010000000     0.829460000000     0.363850000000     0.0147281  
C155     C      0.171890000000     0.795220000000     0.644730000000    -0.0228212  
C156     C      0.067190000000     0.840430000000     0.569610000000    -0.0227029  
C157     C      0.084310000000     0.786580000000     0.556160000000    -0.0225865  
C158     C      0.103240000000     0.799450000000     0.583720000000     0.013523   
C159     C      0.092150000000     0.829440000000     0.592370000000     0.0146989  
C160     C      0.104350000000     0.845770000000     0.619190000000    -0.066621   
C161     C      0.146350000000     0.843400000000     0.664850000000    -0.0226823  
C162     C      0.129610000000     0.785660000000     0.599440000000    -0.0654146  
C163     C      0.129430000000     0.831190000000     0.635960000000     0.0145003  
C164     C      0.142850000000     0.802790000000     0.625430000000     0.0135376  
C165     C      0.925260000000     0.840710000000     0.569660000000    -0.022647   
C166     C      0.820350000000     0.795840000000     0.644690000000    -0.0228038  
C167     C      0.845950000000     0.843990000000     0.664780000000    -0.0225623  
C168     C      0.862910000000     0.831700000000     0.635950000000     0.0142535  
C169     C      0.849440000000     0.803310000000     0.625430000000     0.0134873  
C170     C      0.862670000000     0.786130000000     0.599470000000    -0.0655219  
C171     C      0.908020000000     0.786890000000     0.556240000000    -0.0224921  
C172     C      0.888040000000     0.846200000000     0.619190000000    -0.0666019  
C173     C      0.889080000000     0.799840000000     0.583760000000     0.013391   
C174     C      0.900250000000     0.829800000000     0.592390000000     0.014382   
C175     C      0.820070000000     0.796020000000     0.311940000000    -0.0227856  
C176     C      0.925130000000     0.840770000000     0.386820000000    -0.0225318  
C177     C      0.907890000000     0.786950000000     0.400220000000    -0.0225746  
C178     C      0.888920000000     0.799930000000     0.372750000000     0.0134311  
C179     C      0.900070000000     0.829900000000     0.364120000000     0.0143466  
C180     C      0.887820000000     0.846330000000     0.337380000000    -0.0665727  
C181     C      0.845660000000     0.844180000000     0.291860000000    -0.0225446  
C182     C      0.862460000000     0.786260000000     0.357090000000    -0.065524   
C183     C      0.862640000000     0.831860000000     0.320660000000     0.0142412  
C184     C      0.849180000000     0.803480000000     0.331170000000     0.0134697  
C185     C      0.242950000000     0.241250000000     0.291700000000    -0.0226088  
C186     C      0.300150000000     0.179030000000     0.400090000000    -0.0225936  
C187     C      0.246320000000     0.161810000000     0.386690000000    -0.0225468  
C188     C      0.257200000000     0.186860000000     0.363980000000     0.0145462  
C189     C      0.287180000000     0.198000000000     0.372600000000     0.0134579  
C190     C      0.300860000000     0.224450000000     0.356930000000    -0.0654364  
C191     C      0.291110000000     0.266830000000     0.311780000000    -0.0227431  
C192     C      0.240770000000     0.199110000000     0.337230000000    -0.0666524  
C193     C      0.283640000000     0.237730000000     0.331020000000     0.0134699  
C194     C      0.255260000000     0.224270000000     0.320510000000     0.0144393  
C195     C      0.246430000000     0.161760000000     0.569530000000    -0.0225949  
C196     C      0.291360000000     0.266670000000     0.644510000000    -0.0228092  
C197     C      0.243210000000     0.241090000000     0.664630000000    -0.0226101  
C198     C      0.255490000000     0.224120000000     0.635800000000     0.0143854  
C199     C      0.283870000000     0.237580000000     0.625260000000     0.0135154  
C200     C      0.301040000000     0.224330000000     0.599300000000    -0.0654608  
C201     C      0.300250000000     0.178970000000     0.556080000000    -0.0225361  
C202     C      0.240970000000     0.198990000000     0.619050000000    -0.0665566  
C203     C      0.287320000000     0.197920000000     0.583610000000     0.013465   
C204     C      0.257350000000     0.186770000000     0.592250000000     0.0145303  
C205     C      0.243660000000     0.940700000000     0.664830000000    -0.0225606  
C206     C      0.300470000000     0.002690000000     0.556090000000    -0.0220912  
C207     C      0.246620000000     0.019820000000     0.569540000000    -0.0223414  
C208     C      0.257610000000     0.994870000000     0.592310000000     0.014358   
C209     C      0.287600000000     0.983770000000     0.583660000000     0.0132203  
C210     C      0.301390000000     0.957420000000     0.599390000000    -0.0653449  
C211     C      0.291840000000     0.915160000000     0.644710000000    -0.02281    
C212     C      0.241280000000     0.982680000000     0.619140000000    -0.066541   
C213     C      0.284260000000     0.944180000000     0.625400000000     0.013453   
C214     C      0.255860000000     0.957610000000     0.635930000000     0.0143524  
C215     C      0.243480000000     0.940720000000     0.291310000000    -0.0225897  
C216     C      0.300380000000     0.002720000000     0.399990000000    -0.0219831  
C217     C      0.246520000000     0.019850000000     0.386590000000    -0.0224274  
C218     C      0.257500000000     0.994900000000     0.363810000000     0.0144182  
C219     C      0.287490000000     0.983800000000     0.372430000000     0.0131555  
C220     C      0.301260000000     0.957440000000     0.356690000000    -0.0653222  
C221     C      0.291670000000     0.915180000000     0.311380000000    -0.0227626  
C222     C      0.241140000000     0.982710000000     0.336990000000    -0.0666144  
C223     C      0.284110000000     0.944200000000     0.330700000000     0.0134239  
C224     C      0.255710000000     0.957640000000     0.320190000000     0.0144016  
C225     C      0.743090000000     0.441500000000     0.164740000000    -0.0226882  
C226     C      0.800320000000     0.503740000000     0.056380000000    -0.0224669  
C227     C      0.746490000000     0.520980000000     0.069790000000    -0.0227075  
C228     C      0.757370000000     0.495920000000     0.092480000000     0.0145847  
C229     C      0.787340000000     0.484770000000     0.083860000000     0.0133595  
C230     C      0.801020000000     0.458310000000     0.099510000000    -0.065447   
C231     C      0.791260000000     0.415910000000     0.144650000000    -0.0227857  
C232     C      0.740940000000     0.483670000000     0.119220000000    -0.0666686  
C233     C      0.783800000000     0.445020000000     0.125420000000     0.0134175  
C234     C      0.755410000000     0.458490000000     0.135940000000     0.0144085  
C235     C      0.791770000000     0.767720000000     0.144920000000    -0.0226796  
C236     C      0.746690000000     0.662960000000     0.069820000000    -0.0226368  
C237     C      0.800550000000     0.680090000000     0.056410000000    -0.0225472  
C238     C      0.787640000000     0.699030000000     0.083950000000     0.0134076  
C239     C      0.757650000000     0.687920000000     0.092580000000     0.0145338  
C240     C      0.741280000000     0.700140000000     0.119380000000    -0.0666546  
C241     C      0.743590000000     0.742180000000     0.165010000000    -0.0226109  
C242     C      0.801400000000     0.725410000000     0.099660000000    -0.0654607  
C243     C      0.755830000000     0.725240000000     0.136150000000     0.0143974  
C244     C      0.784240000000     0.738670000000     0.125630000000     0.0133879  
C245     C      0.746780000000     0.662920000000     0.886890000000    -0.0226097  
C246     C      0.791960000000     0.767620000000     0.811760000000    -0.0228468  
C247     C      0.743780000000     0.742070000000     0.791640000000    -0.022667   
C248     C      0.756010000000     0.725150000000     0.820510000000     0.014369   
C249     C      0.784400000000     0.738580000000     0.831050000000     0.0134604  
C250     C      0.801530000000     0.725350000000     0.857050000000    -0.0654775  
C251     C      0.800620000000     0.680050000000     0.900340000000    -0.0224417  
C252     C      0.741430000000     0.700070000000     0.837300000000    -0.0666077  
C253     C      0.787740000000     0.698980000000     0.872780000000     0.0133445  
C254     C      0.757770000000     0.687880000000     0.864130000000     0.0145201  
C255     C      0.746580000000     0.520960000000     0.886970000000    -0.0226343  
C256     C      0.791430000000     0.415920000000     0.812100000000    -0.0227238  
C257     C      0.743280000000     0.441510000000     0.791980000000    -0.0226628  
C258     C      0.755580000000     0.458500000000     0.820780000000     0.0144061  
C259     C      0.783960000000     0.445030000000     0.831330000000     0.013383   
C260     C      0.801150000000     0.458310000000     0.857260000000    -0.0654107  
C261     C      0.800400000000     0.503720000000     0.900410000000    -0.0225809  
C262     C      0.741090000000     0.483660000000     0.837510000000    -0.0666332  
C263     C      0.787450000000     0.484750000000     0.872920000000     0.0133937  
C264     C      0.757480000000     0.495900000000     0.864280000000     0.0145289  
C265     C      0.567100000000     0.842490000000     0.069690000000    -0.0226014  
C266     C      0.671760000000     0.887700000000     0.144850000000    -0.0227993  
C267     C      0.646220000000     0.839520000000     0.164960000000    -0.0226756  
C268     C      0.629300000000     0.851740000000     0.136080000000     0.0144092  
C269     C      0.642720000000     0.880140000000     0.125550000000     0.0134486  
C270     C      0.629490000000     0.897260000000     0.099540000000    -0.0654135  
C271     C      0.584210000000     0.896340000000     0.056240000000    -0.0224726  
C272     C      0.604230000000     0.837160000000     0.119290000000    -0.0666287  
C273     C      0.603140000000     0.883470000000     0.083810000000     0.0134038  
C274     C      0.592040000000     0.853490000000     0.092450000000     0.0145449  
C275     C      0.345610000000     0.838780000000     0.164450000000    -0.0225297  
C276     C      0.407870000000     0.896000000000     0.056100000000    -0.0226143  
C277     C      0.425120000000     0.842190000000     0.069520000000    -0.0224749  
C278     C      0.400050000000     0.853060000000     0.092200000000     0.0144341  
C279     C      0.388890000000     0.883020000000     0.083570000000     0.0135272  
C280     C      0.362430000000     0.896700000000     0.099220000000    -0.0655016  
C281     C      0.320020000000     0.886930000000     0.144350000000    -0.0227645  
C282     C      0.387800000000     0.836630000000     0.118950000000    -0.0665221  
C283     C      0.349140000000     0.879480000000     0.125130000000     0.013516   
C284     C      0.362610000000     0.851100000000     0.135660000000     0.0143149  
C285     C      0.345810000000     0.838780000000     0.791700000000    -0.0225415  
C286     C      0.407980000000     0.895990000000     0.900120000000    -0.022562   
C287     C      0.425240000000     0.842170000000     0.886710000000    -0.0226142  
C288     C      0.400190000000     0.853050000000     0.864000000000     0.0145262  
C289     C      0.389030000000     0.883020000000     0.872620000000     0.0134526  
C290     C      0.362580000000     0.896700000000     0.856950000000    -0.0654709  
C291     C      0.320210000000     0.886940000000     0.811790000000    -0.0228596  
C292     C      0.387960000000     0.836620000000     0.837250000000    -0.0666143  
C293     C      0.349310000000     0.879480000000     0.831030000000     0.0135286  
C294     C      0.362790000000     0.851100000000     0.820510000000     0.0143231  
C295     C      0.584320000000     0.896320000000     0.900190000000    -0.0225789  
C296     C      0.646440000000     0.839430000000     0.791560000000    -0.022596   
C297     C      0.671970000000     0.887620000000     0.811670000000    -0.0227965  
C298     C      0.642910000000     0.880070000000     0.830950000000     0.0134764  
C299     C      0.629480000000     0.851670000000     0.820410000000     0.0143512  
C300     C      0.604400000000     0.837100000000     0.837190000000    -0.0665659  
C301     C      0.567210000000     0.842460000000     0.886740000000    -0.0225906  
C302     C      0.629650000000     0.897210000000     0.856930000000    -0.0654465  
C303     C      0.592180000000     0.853440000000     0.864000000000     0.014513   
C304     C      0.603270000000     0.883430000000     0.872640000000     0.0134332  
C305     C      0.199970000000     0.766850000000     0.144330000000    -0.0228478  
C306     C      0.244820000000     0.661800000000     0.069470000000    -0.0226613  
C307     C      0.191000000000     0.679030000000     0.056030000000    -0.0225315  
C308     C      0.203950000000     0.698010000000     0.083520000000     0.013532   
C309     C      0.233920000000     0.686850000000     0.092170000000     0.0145262  
C310     C      0.250320000000     0.699110000000     0.118920000000    -0.0665464  
C311     C      0.248130000000     0.741260000000     0.164450000000    -0.0227036  
C312     C      0.190250000000     0.724460000000     0.099170000000    -0.0654723  
C313     C      0.235830000000     0.724280000000     0.135640000000     0.0143912  
C314     C      0.207450000000     0.737740000000     0.125100000000     0.0135741  
C315     C      0.190770000000     0.502710000000     0.056100000000    -0.0225618  
C316     C      0.247610000000     0.440680000000     0.164800000000    -0.0226051  
C317     C      0.199440000000     0.415140000000     0.144690000000    -0.0227757  
C318     C      0.206990000000     0.444180000000     0.125390000000     0.0135315  
C319     C      0.235390000000     0.457610000000     0.135930000000     0.0143918  
C320     C      0.249970000000     0.482690000000     0.119140000000    -0.0666436  
C321     C      0.244620000000     0.519830000000     0.069550000000    -0.0226651  
C322     C      0.189870000000     0.457420000000     0.099390000000    -0.0653841  
C323     C      0.233630000000     0.494880000000     0.092310000000     0.0145701  
C324     C      0.203650000000     0.483780000000     0.083660000000     0.013501   
C325     C      0.244710000000     0.519800000000     0.886620000000    -0.0226562  
C326     C      0.199620000000     0.415050000000     0.811520000000    -0.0227885  
C327     C      0.247810000000     0.440580000000     0.791430000000    -0.0226003  
C328     C      0.235550000000     0.457540000000     0.820280000000     0.0143816  
C329     C      0.207150000000     0.444110000000     0.830800000000     0.0135653  
C330     C      0.190000000000     0.457350000000     0.856780000000    -0.0654653  
C331     C      0.190850000000     0.502670000000     0.900040000000    -0.0225705  
C332     C      0.250110000000     0.482620000000     0.837060000000    -0.0666075  
C333     C      0.203760000000     0.483730000000     0.872500000000     0.013532   
C334     C      0.233750000000     0.494830000000     0.863870000000     0.0145397  
C335     C      0.200150000000     0.766850000000     0.811790000000    -0.0227818  
C336     C      0.244910000000     0.661780000000     0.886660000000    -0.0226091  
C337     C      0.191080000000     0.679020000000     0.900060000000    -0.0225727  
C338     C      0.204060000000     0.697990000000     0.872580000000     0.0135284  
C339     C      0.234030000000     0.686840000000     0.863960000000     0.0145183  
C340     C      0.250470000000     0.699090000000     0.837220000000    -0.0666015  
C341     C      0.248320000000     0.741260000000     0.791710000000    -0.0226692  
C342     C      0.190380000000     0.724450000000     0.856930000000    -0.0654478  
C343     C      0.236000000000     0.724280000000     0.820500000000     0.0144014  
C344     C      0.207610000000     0.737740000000     0.831020000000     0.0135358  
C345     C      0.344950000000     0.343340000000     0.164860000000    -0.0225715  
C346     C      0.407090000000     0.286450000000     0.056250000000    -0.0225186  
C347     C      0.424190000000     0.340300000000     0.069690000000    -0.0226138  
C348     C      0.399220000000     0.329320000000     0.092430000000     0.0145059  
C349     C      0.388130000000     0.299340000000     0.083790000000     0.013476   
C350     C      0.361750000000     0.285560000000     0.099490000000    -0.0654743  
C351     C      0.319430000000     0.295150000000     0.144740000000    -0.0228913  
C352     C      0.387000000000     0.345670000000     0.119240000000    -0.0665368  
C353     C      0.348480000000     0.302710000000     0.125460000000     0.0135689  
C354     C      0.361900000000     0.331110000000     0.136000000000     0.0143255  
C355     C      0.566170000000     0.340590000000     0.069720000000    -0.0226102  
C356     C      0.671190000000     0.295820000000     0.144650000000    -0.0228287  
C357     C      0.645580000000     0.343990000000     0.164730000000    -0.0226932  
C358     C      0.628600000000     0.331660000000     0.135940000000     0.0143994  
C359     C      0.642080000000     0.303280000000     0.125420000000     0.013483   
C360     C      0.628820000000     0.286070000000     0.099480000000    -0.06543    
C361     C      0.583430000000     0.286770000000     0.056310000000    -0.0225719  
C362     C      0.603440000000     0.346140000000     0.119190000000    -0.0666032  
C363     C      0.602380000000     0.299750000000     0.083810000000     0.0134786  
C364     C      0.591210000000     0.329720000000     0.092430000000     0.0145132  
C365     C      0.645790000000     0.343990000000     0.791980000000    -0.0226187  
C366     C      0.583530000000     0.286760000000     0.900330000000    -0.0225718  
C367     C      0.566280000000     0.340580000000     0.886910000000    -0.0226053  
C368     C      0.591350000000     0.329700000000     0.864220000000     0.0145121  
C369     C      0.602510000000     0.299740000000     0.872850000000     0.0134561  
C370     C      0.628980000000     0.286070000000     0.857210000000    -0.0654574  
C371     C      0.671380000000     0.295830000000     0.812080000000    -0.0227994  
C372     C      0.603600000000     0.346130000000     0.837480000000    -0.066579   
C373     C      0.642270000000     0.303280000000     0.831300000000     0.0134977  
C374     C      0.628800000000     0.331670000000     0.820770000000     0.0143651  
C375     C      0.407190000000     0.286420000000     0.900190000000    -0.0225508  
C376     C      0.345170000000     0.343240000000     0.791480000000    -0.0225984  
C377     C      0.319630000000     0.295060000000     0.811590000000    -0.0228544  
C378     C      0.348670000000     0.302620000000     0.830890000000     0.0135088  
C379     C      0.362100000000     0.331020000000     0.820350000000     0.0143725  
C380     C      0.387170000000     0.345610000000     0.837150000000    -0.0666588  
C381     C      0.424300000000     0.340270000000     0.886740000000    -0.0226672  
C382     C      0.361910000000     0.285500000000     0.856900000000    -0.0654514  
C383     C      0.399360000000     0.329280000000     0.863980000000     0.0145638  
C384     C      0.388260000000     0.299290000000     0.872620000000     0.0134698  
Cu1      Cu     0.495300000000     0.282710000000     0.978270000000     0.832015   
Cu2      Cu     0.495190000000     0.341840000000     0.978260000000     0.857866   
Cu3      Cu     0.187030000000     0.590840000000     0.978050000000     0.832304   
Cu4      Cu     0.246170000000     0.590760000000     0.978080000000     0.857944   
Cu5      Cu     0.496220000000     0.840920000000     0.978160000000     0.857871   
Cu6      Cu     0.496100000000     0.900050000000     0.978160000000     0.832172   
Cu7      Cu     0.745230000000     0.592000000000     0.978370000000     0.858039   
Cu8      Cu     0.804370000000     0.591920000000     0.978390000000     0.831904   
Cu9      Cu     0.245060000000     0.090770000000     0.478090000000     0.858331   
Cu10     Cu     0.304190000000     0.090840000000     0.478050000000     0.832243   
Cu11     Cu     0.996110000000     0.782870000000     0.478170000000     0.829331   
Cu12     Cu     0.996210000000     0.842000000000     0.478180000000     0.855115   
Cu13     Cu     0.687200000000     0.091930000000     0.478390000000     0.832517   
Cu14     Cu     0.746340000000     0.091990000000     0.478350000000     0.857971   
Cu15     Cu     0.995190000000     0.340750000000     0.478260000000     0.855261   
Cu16     Cu     0.995290000000     0.399890000000     0.478270000000     0.82938    
Cu17     Cu     0.263030000000     0.358790000000     0.244020000000     0.845281   
Cu18     Cu     0.227440000000     0.323200000000     0.212530000000     0.845253   
Cu19     Cu     0.727550000000     0.359540000000     0.243880000000     0.845022   
Cu20     Cu     0.763150000000     0.323940000000     0.212390000000     0.844992   
Cu21     Cu     0.763360000000     0.323940000000     0.744340000000     0.844918   
Cu22     Cu     0.727770000000     0.359530000000     0.712860000000     0.845211   
Cu23     Cu     0.763710000000     0.859700000000     0.212690000000     0.844752   
Cu24     Cu     0.728120000000     0.824120000000     0.244180000000     0.845303   
Cu25     Cu     0.763960000000     0.859560000000     0.743910000000     0.844792   
Cu26     Cu     0.728380000000     0.823960000000     0.712420000000     0.845307   
Cu27     Cu     0.228040000000     0.858820000000     0.212090000000     0.845337   
Cu28     Cu     0.263640000000     0.823230000000     0.243570000000     0.845061   
Cu29     Cu     0.263840000000     0.823220000000     0.712560000000     0.844828   
Cu30     Cu     0.228250000000     0.858820000000     0.744040000000     0.845215   
Cu31     Cu     0.263280000000     0.358640000000     0.712260000000     0.845057   
Cu32     Cu     0.227680000000     0.323070000000     0.743750000000     0.84511    
H1       H      0.169210000000     0.410310000000     0.656700000000     0.0419121  
H2       H      0.130010000000     0.339190000000     0.686280000000     0.0449608  
H3       H      0.094210000000     0.313430000000     0.626300000000     0.0442424  
H4       H      0.138810000000     0.419140000000     0.591620000000     0.0445214  
H5       H      0.069900000000     0.417350000000     0.563690000000     0.0456138  
H6       H      0.074280000000     0.320620000000     0.555870000000     0.0458344  
H7       H      0.192960000000     0.386890000000     0.628930000000     0.0458309  
H8       H      0.154130000000     0.313690000000     0.660790000000     0.0425069  
H9       H      0.043790000000     0.336050000000     0.582580000000     0.0421212  
H10      H      0.099000000000     0.402120000000     0.535310000000     0.0418212  
H11      H      0.069740000000     0.417410000000     0.392760000000     0.0455904  
H12      H      0.043630000000     0.336110000000     0.373840000000     0.0421123  
H13      H      0.094000000000     0.313540000000     0.330020000000     0.0442701  
H14      H      0.138610000000     0.419240000000     0.364710000000     0.044528   
H15      H      0.168930000000     0.410460000000     0.299590000000     0.041909   
H16      H      0.153870000000     0.313840000000     0.295440000000     0.0425574  
H17      H      0.098900000000     0.402170000000     0.421070000000     0.041799   
H18      H      0.074180000000     0.320670000000     0.400490000000     0.0458186  
H19      H      0.129730000000     0.339360000000     0.270010000000     0.0449976  
H20      H      0.192730000000     0.387050000000     0.327310000000     0.0458296  
H21      H      0.836590000000     0.314460000000     0.295300000000     0.0423926  
H22      H      0.797830000000     0.387720000000     0.327220000000     0.0458182  
H23      H      0.851960000000     0.419740000000     0.364750000000     0.0444017  
H24      H      0.896370000000     0.313970000000     0.329990000000     0.0438686  
H25      H      0.916080000000     0.320960000000     0.400520000000     0.0455113  
H26      H      0.920790000000     0.417690000000     0.392880000000     0.0451313  
H27      H      0.860820000000     0.339980000000     0.269950000000     0.0446552  
H28      H      0.821710000000     0.411110000000     0.299560000000     0.0417454  
H29      H      0.891560000000     0.402500000000     0.421150000000     0.0416717  
H30      H      0.946710000000     0.336320000000     0.373920000000     0.0413504  
H31      H      0.861050000000     0.339980000000     0.686760000000     0.044648   
H32      H      0.821930000000     0.411110000000     0.657190000000     0.0417483  
H33      H      0.852120000000     0.419740000000     0.591970000000     0.0443964  
H34      H      0.896550000000     0.313960000000     0.626670000000     0.0438687  
H35      H      0.946840000000     0.336300000000     0.582680000000     0.0413277  
H36      H      0.891660000000     0.402490000000     0.535530000000     0.0416659  
H37      H      0.836810000000     0.314460000000     0.661420000000     0.0423854  
H38      H      0.798020000000     0.387740000000     0.629540000000     0.0458197  
H39      H      0.920920000000     0.417670000000     0.563760000000     0.0451234  
H40      H      0.916180000000     0.320950000000     0.556120000000     0.0454879  
H41      H      0.772830000000     0.250490000000     0.661390000000     0.0423984  
H42      H      0.699550000000     0.289270000000     0.629550000000     0.0458668  
H43      H      0.667490000000     0.235170000000     0.592020000000     0.0444418  
H44      H      0.773280000000     0.190720000000     0.626680000000     0.0439926  
H45      H      0.766230000000     0.171040000000     0.556150000000     0.0455828  
H46      H      0.669510000000     0.166350000000     0.563860000000     0.0453611  
H47      H      0.747320000000     0.226260000000     0.686760000000     0.0447671  
H48      H      0.676180000000     0.265390000000     0.657220000000     0.0418635  
H49      H      0.684690000000     0.195590000000     0.535600000000     0.0417185  
H50      H      0.750880000000     0.140400000000     0.582740000000     0.0416676  
H51      H      0.669410000000     0.166370000000     0.392960000000     0.0453579  
H52      H      0.750770000000     0.140430000000     0.373990000000     0.0416485  
H53      H      0.773130000000     0.190740000000     0.330040000000     0.0439771  
H54      H      0.667370000000     0.235190000000     0.364790000000     0.0444517  
H55      H      0.675990000000     0.265390000000     0.299580000000     0.041814   
H56      H      0.772640000000     0.250510000000     0.295310000000     0.0424201  
H57      H      0.684620000000     0.195610000000     0.421200000000     0.0417253  
H58      H      0.766140000000     0.171060000000     0.400570000000     0.0455566  
H59      H      0.747110000000     0.226260000000     0.269980000000     0.0447706  
H60      H      0.699370000000     0.289300000000     0.327220000000     0.0458145  
H61      H      0.773090000000     0.933270000000     0.295570000000     0.0423776  
H62      H      0.699880000000     0.894440000000     0.327480000000     0.0458163  
H63      H      0.667730000000     0.948560000000     0.364900000000     0.0444188  
H64      H      0.773430000000     0.993130000000     0.330140000000     0.043895   
H65      H      0.766340000000     0.012960000000     0.400610000000     0.0455834  
H66      H      0.669600000000     0.017440000000     0.392930000000     0.0453174  
H67      H      0.747560000000     0.957410000000     0.270140000000     0.0447213  
H68      H      0.676470000000     0.918230000000     0.299760000000     0.0418246  
H69      H      0.684850000000     0.988280000000     0.421240000000     0.0414934  
H70      H      0.750900000000     0.043510000000     0.373960000000     0.0416228  
H71      H      0.669720000000     0.017360000000     0.563840000000     0.0453045  
H72      H      0.751030000000     0.043440000000     0.582720000000     0.0416328  
H73      H      0.773640000000     0.993010000000     0.626430000000     0.0439028  
H74      H      0.667920000000     0.948450000000     0.591770000000     0.0444286  
H75      H      0.676750000000     0.918040000000     0.656830000000     0.0418428  
H76      H      0.773370000000     0.933090000000     0.660930000000     0.0423986  
H77      H      0.684930000000     0.988250000000     0.535460000000     0.0414817  
H78      H      0.766450000000     0.012940000000     0.556000000000     0.0455943  
H79      H      0.747870000000     0.957220000000     0.686400000000     0.0447566  
H80      H      0.700150000000     0.894270000000     0.629080000000     0.0458415  
H81      H      0.154610000000     0.868310000000     0.295020000000     0.0425117  
H82      H      0.193390000000     0.795030000000     0.326900000000     0.0458431  
H83      H      0.139290000000     0.763030000000     0.364470000000     0.0445483  
H84      H      0.094860000000     0.868810000000     0.329770000000     0.0442253  
H85      H      0.075220000000     0.861810000000     0.400320000000     0.0458453  
H86      H      0.070490000000     0.765090000000     0.392680000000     0.0456255  
H87      H      0.130360000000     0.842790000000     0.269680000000     0.0449563  
H88      H      0.169480000000     0.771650000000     0.299250000000     0.0418929  
H89      H      0.099750000000     0.780270000000     0.420910000000     0.0418021  
H90      H      0.044570000000     0.846460000000     0.373760000000     0.0421512  
H91      H      0.070600000000     0.765070000000     0.563560000000     0.0456365  
H92      H      0.044690000000     0.846430000000     0.582520000000     0.0421251  
H93      H      0.095030000000     0.868790000000     0.626440000000     0.0442494  
H94      H      0.139440000000     0.763020000000     0.591690000000     0.0445589  
H95      H      0.169680000000     0.771650000000     0.656870000000     0.0419171  
H96      H      0.154810000000     0.868300000000     0.661140000000     0.0425325  
H97      H      0.099830000000     0.780260000000     0.535290000000     0.041829   
H98      H      0.075310000000     0.861790000000     0.555920000000     0.0458258  
H99      H      0.130570000000     0.842780000000     0.686480000000     0.0449828  
H100     H      0.193580000000     0.795040000000     0.629230000000     0.0458655  
H101     H      0.837550000000     0.868910000000     0.661010000000     0.0423626  
H102     H      0.798690000000     0.795690000000     0.629140000000     0.0458211  
H103     H      0.852790000000     0.763510000000     0.591730000000     0.0444027  
H104     H      0.897410000000     0.869210000000     0.626420000000     0.043836   
H105     H      0.917210000000     0.862080000000     0.555950000000     0.0455055  
H106     H      0.921660000000     0.765350000000     0.563670000000     0.0451259  
H107     H      0.861680000000     0.843380000000     0.686440000000     0.0446377  
H108     H      0.822480000000     0.772290000000     0.656870000000     0.0417664  
H109     H      0.892500000000     0.780590000000     0.535360000000     0.0416707  
H110     H      0.947760000000     0.846640000000     0.582590000000     0.0413609  
H111     H      0.921510000000     0.765410000000     0.392740000000     0.0451232  
H112     H      0.947620000000     0.846700000000     0.373850000000     0.0413214  
H113     H      0.897190000000     0.869340000000     0.330140000000     0.0438228  
H114     H      0.852590000000     0.763630000000     0.364810000000     0.0444056  
H115     H      0.822180000000     0.772470000000     0.299750000000     0.0417654  
H116     H      0.837260000000     0.869090000000     0.295650000000     0.0423532  
H117     H      0.892410000000     0.780640000000     0.421120000000     0.0416976  
H118     H      0.917130000000     0.862140000000     0.400570000000     0.0454895  
H119     H      0.861380000000     0.843580000000     0.270180000000     0.0446417  
H120     H      0.798420000000     0.795880000000     0.327510000000     0.0458054  
H121     H      0.240370000000     0.139320000000     0.373720000000     0.0417432  
H122     H      0.321680000000     0.165400000000     0.392600000000     0.0453671  
H123     H      0.323490000000     0.234310000000     0.364670000000     0.0444649  
H124     H      0.217770000000     0.189750000000     0.330000000000     0.0441732  
H125     H      0.243540000000     0.225530000000     0.270020000000     0.0448839  
H126     H      0.291270000000     0.288480000000     0.327350000000     0.0458052  
H127     H      0.224950000000     0.169830000000     0.400430000000     0.0456885  
H128     H      0.306470000000     0.194510000000     0.420980000000     0.041751   
H129     H      0.314670000000     0.264710000000     0.299600000000     0.0418302  
H130     H      0.218040000000     0.249670000000     0.295500000000     0.042497   
H131     H      0.243830000000     0.225360000000     0.686290000000     0.0448815  
H132     H      0.314920000000     0.264530000000     0.656680000000     0.0418506  
H133     H      0.323660000000     0.234200000000     0.591540000000     0.0444695  
H134     H      0.217960000000     0.189630000000     0.626300000000     0.044117   
H135     H      0.240490000000     0.139260000000     0.582480000000     0.0417502  
H136     H      0.306550000000     0.194480000000     0.535200000000     0.0417399  
H137     H      0.218300000000     0.249500000000     0.660860000000     0.0425196  
H138     H      0.291510000000     0.288330000000     0.628960000000     0.0458401  
H139     H      0.321790000000     0.165330000000     0.563520000000     0.0453495  
H140     H      0.225050000000     0.169800000000     0.555830000000     0.0457092  
H141     H      0.240620000000     0.042330000000     0.582440000000     0.0417393  
H142     H      0.321980000000     0.016390000000     0.563470000000     0.0453429  
H143     H      0.324030000000     0.947570000000     0.591640000000     0.044393   
H144     H      0.218260000000     0.992010000000     0.626400000000     0.0440414  
H145     H      0.244280000000     0.956500000000     0.686450000000     0.0448032  
H146     H      0.292020000000     0.893460000000     0.629220000000     0.0458418  
H147     H      0.225250000000     0.011690000000     0.555860000000     0.0456951  
H148     H      0.306780000000     0.987150000000     0.535230000000     0.0414885  
H149     H      0.315410000000     0.917370000000     0.656850000000     0.0418169  
H150     H      0.218760000000     0.932240000000     0.661120000000     0.0424786  
H151     H      0.225170000000     0.011730000000     0.400290000000     0.0457347  
H152     H      0.306710000000     0.987180000000     0.420840000000     0.04147    
H153     H      0.323910000000     0.947600000000     0.364410000000     0.0443921  
H154     H      0.218120000000     0.992040000000     0.329760000000     0.0440782  
H155     H      0.218580000000     0.932260000000     0.295040000000     0.0424812  
H156     H      0.315230000000     0.917380000000     0.299230000000     0.0418022  
H157     H      0.240520000000     0.042360000000     0.373690000000     0.0417562  
H158     H      0.321900000000     0.016420000000     0.392580000000     0.0452941  
H159     H      0.291860000000     0.893480000000     0.326880000000     0.0458283  
H160     H      0.244080000000     0.956510000000     0.269690000000     0.0448126  
H161     H      0.740550000000     0.543460000000     0.082760000000     0.0417051  
H162     H      0.821860000000     0.517370000000     0.063870000000     0.045201   
H163     H      0.823650000000     0.448440000000     0.091780000000     0.0443439  
H164     H      0.717930000000     0.493030000000     0.126460000000     0.044052   
H165     H      0.743680000000     0.457210000000     0.186420000000     0.04481    
H166     H      0.791410000000     0.394270000000     0.129080000000     0.0457667  
H167     H      0.725130000000     0.512970000000     0.056040000000     0.0456791  
H168     H      0.806650000000     0.488260000000     0.035490000000     0.0416503  
H169     H      0.814810000000     0.418010000000     0.156840000000     0.0417333  
H170     H      0.718190000000     0.433100000000     0.160930000000     0.0424689  
H171     H      0.822060000000     0.666390000000     0.063830000000     0.0452506  
H172     H      0.740700000000     0.640450000000     0.082740000000     0.0416862  
H173     H      0.718260000000     0.690810000000     0.126610000000     0.0440517  
H174     H      0.824040000000     0.735250000000     0.091930000000     0.0443425  
H175     H      0.815330000000     0.765530000000     0.157080000000     0.0416885  
H176     H      0.718680000000     0.750630000000     0.161270000000     0.0424381  
H177     H      0.806880000000     0.695600000000     0.035540000000     0.0416642  
H178     H      0.725340000000     0.671060000000     0.056120000000     0.0456567  
H179     H      0.744190000000     0.726420000000     0.186650000000     0.0447746  
H180     H      0.791960000000     0.789400000000     0.129390000000     0.0457302  
H181     H      0.718880000000     0.750530000000     0.795360000000     0.0424624  
H182     H      0.792130000000     0.789310000000     0.827270000000     0.0457685  
H183     H      0.824160000000     0.735190000000     0.864800000000     0.0443399  
H184     H      0.718410000000     0.690740000000     0.830050000000     0.0440244  
H185     H      0.725410000000     0.671040000000     0.900570000000     0.04562    
H186     H      0.822150000000     0.666360000000     0.892940000000     0.0451938  
H187     H      0.744410000000     0.726300000000     0.770000000000     0.0447971  
H188     H      0.815520000000     0.765430000000     0.799610000000     0.0417388  
H189     H      0.806940000000     0.695580000000     0.921200000000     0.0416003  
H190     H      0.740800000000     0.640420000000     0.873980000000     0.041694   
H191     H      0.743890000000     0.457220000000     0.770300000000     0.0448071  
H192     H      0.814990000000     0.418020000000     0.799930000000     0.0417178  
H193     H      0.823780000000     0.448430000000     0.865010000000     0.0443003  
H194     H      0.718080000000     0.493020000000     0.830260000000     0.0440307  
H195     H      0.740650000000     0.543440000000     0.874000000000     0.0416975  
H196     H      0.806700000000     0.488240000000     0.921310000000     0.0416527  
H197     H      0.718370000000     0.433110000000     0.795770000000     0.042466   
H198     H      0.791580000000     0.394280000000     0.827680000000     0.0457294  
H199     H      0.821940000000     0.517350000000     0.892950000000     0.045234   
H200     H      0.725210000000     0.512940000000     0.900690000000     0.0456431  
H201     H      0.654680000000     0.814620000000     0.161240000000     0.0424644  
H202     H      0.693450000000     0.887870000000     0.129340000000     0.0458004  
H203     H      0.639330000000     0.919900000000     0.091790000000     0.0444081  
H204     H      0.594910000000     0.814140000000     0.126540000000     0.0440487  
H205     H      0.575220000000     0.821130000000     0.056010000000     0.0456431  
H206     H      0.570510000000     0.917860000000     0.063640000000     0.0453095  
H207     H      0.630450000000     0.840140000000     0.186590000000     0.044828   
H208     H      0.669560000000     0.911270000000     0.156990000000     0.0417924  
H209     H      0.599750000000     0.902660000000     0.035380000000     0.0416786  
H210     H      0.544580000000     0.836500000000     0.082590000000     0.0416967  
H211     H      0.417130000000     0.820810000000     0.055770000000     0.0456133  
H212     H      0.392400000000     0.902310000000     0.035200000000     0.0417678  
H213     H      0.352550000000     0.919320000000     0.091480000000     0.0444922  
H214     H      0.397170000000     0.813620000000     0.126190000000     0.044012   
H215     H      0.337220000000     0.813870000000     0.160650000000     0.0424291  
H216     H      0.322110000000     0.910490000000     0.156540000000     0.041835   
H217     H      0.447610000000     0.836250000000     0.082500000000     0.0416535  
H218     H      0.421490000000     0.917540000000     0.063580000000     0.0453506  
H219     H      0.298380000000     0.887070000000     0.128770000000     0.0458331  
H220     H      0.361320000000     0.839380000000     0.186140000000     0.0447877  
H221     H      0.447740000000     0.836240000000     0.873750000000     0.0416898  
H222     H      0.421600000000     0.917530000000     0.892650000000     0.0453324  
H223     H      0.352690000000     0.919320000000     0.864690000000     0.044466   
H224     H      0.397330000000     0.813620000000     0.830010000000     0.0440518  
H225     H      0.361540000000     0.839380000000     0.770030000000     0.0447879  
H226     H      0.298560000000     0.887080000000     0.827350000000     0.0458677  
H227     H      0.417230000000     0.820800000000     0.900440000000     0.045641   
H228     H      0.392480000000     0.902300000000     0.921000000000     0.0417329  
H229     H      0.322320000000     0.910490000000     0.799600000000     0.0418637  
H230     H      0.337410000000     0.813870000000     0.795500000000     0.0424276  
H231     H      0.693640000000     0.887790000000     0.827210000000     0.0457799  
H232     H      0.654890000000     0.814530000000     0.795300000000     0.0424388  
H233     H      0.595080000000     0.814070000000     0.829940000000     0.0440085  
H234     H      0.639480000000     0.919850000000     0.864690000000     0.0444071  
H235     H      0.599830000000     0.902640000000     0.921060000000     0.0416936  
H236     H      0.544710000000     0.836470000000     0.873820000000     0.0416995  
H237     H      0.669780000000     0.911180000000     0.799520000000     0.0417967  
H238     H      0.630680000000     0.840040000000     0.769910000000     0.0447964  
H239     H      0.575320000000     0.821100000000     0.900440000000     0.0456212  
H240     H      0.570620000000     0.917830000000     0.892770000000     0.0453365  
H241     H      0.184700000000     0.694520000000     0.035130000000     0.0418248  
H242     H      0.266190000000     0.669810000000     0.055750000000     0.0456757  
H243     H      0.273330000000     0.689740000000     0.126180000000     0.0440205  
H244     H      0.167630000000     0.734330000000     0.091420000000     0.0446233  
H245     H      0.199830000000     0.788500000000     0.128760000000     0.045911   
H246     H      0.247510000000     0.725550000000     0.186130000000     0.0448775  
H247     H      0.169460000000     0.665410000000     0.063490000000     0.0454717  
H248     H      0.250750000000     0.639320000000     0.082450000000     0.0417252  
H249     H      0.273030000000     0.749660000000     0.160670000000     0.0425015  
H250     H      0.176410000000     0.764740000000     0.156500000000     0.0419706  
H251     H      0.199270000000     0.393450000000     0.129180000000     0.0459128  
H252     H      0.272510000000     0.432230000000     0.161080000000     0.0424564  
H253     H      0.272980000000     0.492010000000     0.126390000000     0.0440839  
H254     H      0.167230000000     0.447570000000     0.091640000000     0.0445842  
H255     H      0.184460000000     0.487180000000     0.035240000000     0.0418342  
H256     H      0.250600000000     0.542340000000     0.082470000000     0.0417299  
H257     H      0.175870000000     0.417330000000     0.156830000000     0.0419446  
H258     H      0.246990000000     0.456460000000     0.186440000000     0.0448212  
H259     H      0.265980000000     0.511720000000     0.055870000000     0.045671   
H260     H      0.169250000000     0.516400000000     0.063500000000     0.0454879  
H261     H      0.272710000000     0.432140000000     0.795180000000     0.0424495  
H262     H      0.199440000000     0.393370000000     0.827050000000     0.0459059  
H263     H      0.167360000000     0.447510000000     0.864510000000     0.0446129  
H264     H      0.273130000000     0.491950000000     0.829830000000     0.0440576  
H265     H      0.266060000000     0.511700000000     0.900330000000     0.0456514  
H266     H      0.169340000000     0.516360000000     0.892610000000     0.0454829  
H267     H      0.247200000000     0.456340000000     0.769780000000     0.0448348  
H268     H      0.176060000000     0.417230000000     0.799350000000     0.0419473  
H269     H      0.184520000000     0.487150000000     0.920900000000     0.0418084  
H270     H      0.250700000000     0.542300000000     0.873700000000     0.041727   
H271     H      0.169550000000     0.665390000000     0.892570000000     0.0454748  
H272     H      0.250840000000     0.639290000000     0.873680000000     0.0417116  
H273     H      0.273480000000     0.689730000000     0.829990000000     0.0440578  
H274     H      0.167750000000     0.734320000000     0.864660000000     0.044602   
H275     H      0.176600000000     0.764750000000     0.799600000000     0.0419628  
H276     H      0.273220000000     0.749660000000     0.795510000000     0.0424664  
H277     H      0.184760000000     0.694500000000     0.920960000000     0.0418162  
H278     H      0.266280000000     0.669780000000     0.900400000000     0.0456351  
H279     H      0.247730000000     0.725550000000     0.770020000000     0.0448661  
H280     H      0.200000000000     0.788490000000     0.827370000000     0.0458844  
H281     H      0.446690000000     0.346300000000     0.082610000000     0.0417027  
H282     H      0.420790000000     0.264940000000     0.063660000000     0.0453755  
H283     H      0.351920000000     0.262920000000     0.091740000000     0.0445158  
H284     H      0.396320000000     0.368700000000     0.126490000000     0.0440092  
H285     H      0.360720000000     0.342730000000     0.186500000000     0.0447917  
H286     H      0.297750000000     0.294980000000     0.129220000000     0.0459121  
H287     H      0.416090000000     0.361660000000     0.055990000000     0.0456561  
H288     H      0.391580000000     0.280120000000     0.035370000000     0.0417544  
H289     H      0.321620000000     0.271590000000     0.156890000000     0.0418876  
H290     H      0.336500000000     0.368240000000     0.161130000000     0.0424527  
H291     H      0.629870000000     0.343390000000     0.186410000000     0.0448395  
H292     H      0.669090000000     0.272270000000     0.156840000000     0.041838   
H293     H      0.638710000000     0.263440000000     0.091750000000     0.0444418  
H294     H      0.594070000000     0.369150000000     0.126420000000     0.0440442  
H295     H      0.543670000000     0.346520000000     0.082680000000     0.0416944  
H296     H      0.598920000000     0.280460000000     0.035420000000     0.0417584  
H297     H      0.653980000000     0.368890000000     0.160930000000     0.0424814  
H298     H      0.692840000000     0.295680000000     0.129080000000     0.0458165  
H299     H      0.569810000000     0.265230000000     0.063780000000     0.045359   
H300     H      0.574180000000     0.361960000000     0.055980000000     0.0456527  
H301     H      0.543790000000     0.346510000000     0.873930000000     0.041696   
H302     H      0.569920000000     0.265220000000     0.892840000000     0.0453469  
H303     H      0.638850000000     0.263440000000     0.864950000000     0.0444434  
H304     H      0.594230000000     0.369140000000     0.830240000000     0.0440252  
H305     H      0.630080000000     0.343390000000     0.770290000000     0.0448132  
H306     H      0.693030000000     0.295690000000     0.827660000000     0.0457891  
H307     H      0.574270000000     0.361950000000     0.900650000000     0.0456393  
H308     H      0.599010000000     0.280460000000     0.921230000000     0.0417289  
H309     H      0.669290000000     0.272280000000     0.799890000000     0.0418346  
H310     H      0.654180000000     0.368890000000     0.795780000000     0.0424637  
H311     H      0.297950000000     0.294890000000     0.827100000000     0.0458982  
H312     H      0.336710000000     0.368140000000     0.795200000000     0.0424545  
H313     H      0.396490000000     0.368620000000     0.829900000000     0.0440745  
H314     H      0.352070000000     0.262860000000     0.864640000000     0.0444941  
H315     H      0.391660000000     0.280100000000     0.921050000000     0.0417424  
H316     H      0.446810000000     0.346260000000     0.873840000000     0.0417129  
H317     H      0.321840000000     0.271490000000     0.799450000000     0.0418694  
H318     H      0.360950000000     0.342620000000     0.769840000000     0.0448069  
H319     H      0.416180000000     0.361630000000     0.900430000000     0.0456593  
H320     H      0.420900000000     0.264910000000     0.892800000000     0.0453727  
N1       N      0.061930000000     0.369430000000     0.548080000000    -0.166356   
N2       N      0.172510000000     0.360770000000     0.668320000000    -0.166412   
N3       N      0.172240000000     0.360930000000     0.287930000000    -0.166429   
N4       N      0.061820000000     0.369470000000     0.408340000000    -0.166426   
N5       N      0.928580000000     0.369720000000     0.408420000000    -0.166614   
N6       N      0.818320000000     0.361600000000     0.287840000000    -0.166428   
N7       N      0.928680000000     0.369700000000     0.548210000000    -0.166629   
N8       N      0.818530000000     0.361610000000     0.668900000000    -0.166537   
N9       N      0.717470000000     0.158560000000     0.548280000000    -0.166579   
N10      N      0.725690000000     0.268770000000     0.668900000000    -0.166427   
N11      N      0.725490000000     0.268780000000     0.287850000000    -0.166429   
N12      N      0.717390000000     0.158580000000     0.408490000000    -0.16663    
N13      N      0.717550000000     0.025350000000     0.408480000000    -0.16663    
N14      N      0.725990000000     0.914910000000     0.288090000000    -0.166454   
N15      N      0.726280000000     0.914730000000     0.668460000000    -0.166371   
N16      N      0.717640000000     0.025310000000     0.548220000000    -0.166616   
N17      N      0.062730000000     0.813060000000     0.408230000000    -0.166366   
N18      N      0.172870000000     0.821160000000     0.287540000000    -0.166415   
N19      N      0.173080000000     0.821150000000     0.668600000000    -0.166378   
N20      N      0.062820000000     0.813040000000     0.548020000000    -0.166329   
N21      N      0.929580000000     0.813280000000     0.548100000000    -0.16659    
N22      N      0.819170000000     0.821810000000     0.668510000000    -0.166434   
N23      N      0.818880000000     0.822000000000     0.288130000000    -0.166479   
N24      N      0.929480000000     0.813330000000     0.408350000000    -0.166633   
N25      N      0.265140000000     0.268020000000     0.287960000000    -0.166388   
N26      N      0.273760000000     0.157450000000     0.408210000000    -0.166526   
N27      N      0.273840000000     0.157420000000     0.547960000000    -0.166505   
N28      N      0.265400000000     0.267860000000     0.668350000000    -0.166445   
N29      N      0.265910000000     0.913980000000     0.668590000000    -0.166489   
N30      N      0.274010000000     0.024180000000     0.547950000000    -0.166606   
N31      N      0.265720000000     0.914000000000     0.287540000000    -0.166389   
N32      N      0.273930000000     0.024210000000     0.408160000000    -0.16662    
N33      N      0.765280000000     0.414720000000     0.168460000000    -0.166394   
N34      N      0.773940000000     0.525330000000     0.048260000000    -0.166549   
N35      N      0.765820000000     0.768920000000     0.168760000000    -0.166478   
N36      N      0.774110000000     0.658580000000     0.048260000000    -0.166544   
N37      N      0.774170000000     0.658560000000     0.908480000000    -0.166542   
N38      N      0.766020000000     0.768810000000     0.787890000000    -0.166457   
N39      N      0.774000000000     0.525310000000     0.908520000000    -0.166567   
N40      N      0.765470000000     0.414720000000     0.788270000000    -0.166446   
N41      N      0.562730000000     0.869880000000     0.048100000000    -0.166557   
N42      N      0.672950000000     0.861760000000     0.168710000000    -0.166388   
N43      N      0.318830000000     0.860960000000     0.168170000000    -0.16646    
N44      N      0.429470000000     0.869620000000     0.047990000000    -0.166502   
N45      N      0.319030000000     0.860960000000     0.787970000000    -0.166453   
N46      N      0.429570000000     0.869610000000     0.908250000000    -0.16654    
N47      N      0.562820000000     0.869860000000     0.908320000000    -0.166587   
N48      N      0.673170000000     0.861670000000     0.787820000000    -0.166426   
N49      N      0.225940000000     0.768050000000     0.168160000000    -0.166382   
N50      N      0.217390000000     0.657450000000     0.047920000000    -0.16658    
N51      N      0.217220000000     0.524200000000     0.047970000000    -0.166435   
N52      N      0.225370000000     0.413950000000     0.168550000000    -0.166436   
N53      N      0.217290000000     0.524170000000     0.908180000000    -0.166498   
N54      N      0.225580000000     0.413840000000     0.787680000000    -0.166472   
N55      N      0.226130000000     0.768050000000     0.787980000000    -0.166473   
N56      N      0.217460000000     0.657430000000     0.908180000000    -0.166477   
N57      N      0.318220000000     0.321100000000     0.168600000000    -0.166454   
N58      N      0.428580000000     0.312900000000     0.048110000000    -0.166485   
N59      N      0.561840000000     0.313150000000     0.048180000000    -0.166522   
N60      N      0.672370000000     0.321810000000     0.168460000000    -0.166388   
N61      N      0.672580000000     0.321810000000     0.788260000000    -0.166468   
N62      N      0.561930000000     0.313140000000     0.908440000000    -0.166503   
N63      N      0.428670000000     0.312880000000     0.908340000000    -0.166558   
N64      N      0.318450000000     0.320990000000     0.787720000000    -0.166383   
O1       O      0.460560000000     0.285620000000     0.943770000000    -0.394199   
O2       O      0.530040000000     0.285760000000     0.012770000000    -0.394028   
O3       O      0.460510000000     0.285620000000     0.012720000000    -0.394044   
O4       O      0.530090000000     0.285750000000     0.943820000000    -0.394105   
O5       O      0.528760000000     0.339080000000     0.943160000000    -0.400985   
O6       O      0.461630000000     0.338960000000     0.013370000000    -0.400848   
O7       O      0.528720000000     0.339090000000     0.013410000000    -0.4008     
O8       O      0.461670000000     0.338950000000     0.943110000000    -0.400962   
O9       O      0.190070000000     0.625600000000     0.943570000000    -0.393842   
O10      O      0.189950000000     0.556090000000     0.012530000000    -0.393973   
O11      O      0.190040000000     0.625610000000     0.012520000000    -0.393969   
O12      O      0.189990000000     0.556070000000     0.943580000000    -0.394155   
O13      O      0.243320000000     0.557220000000     0.942950000000    -0.400931   
O14      O      0.243370000000     0.624320000000     0.013190000000    -0.400889   
O15      O      0.243290000000     0.557230000000     0.013210000000    -0.400869   
O16      O      0.243410000000     0.624300000000     0.942940000000    -0.40079    
O17      O      0.529730000000     0.843820000000     0.013320000000    -0.400846   
O18      O      0.462690000000     0.843680000000     0.943010000000    -0.400998   
O19      O      0.529780000000     0.843810000000     0.943060000000    -0.401111   
O20      O      0.462640000000     0.843680000000     0.013260000000    -0.400817   
O21      O      0.461320000000     0.897010000000     0.012610000000    -0.394063   
O22      O      0.530890000000     0.897140000000     0.943710000000    -0.394172   
O23      O      0.461370000000     0.897010000000     0.943660000000    -0.394099   
O24      O      0.530840000000     0.897150000000     0.012660000000    -0.39411    
O25      O      0.748110000000     0.625530000000     0.943240000000    -0.400888   
O26      O      0.748000000000     0.558450000000     0.013500000000    -0.400872   
O27      O      0.748080000000     0.625540000000     0.013490000000    -0.400928   
O28      O      0.748030000000     0.558440000000     0.943250000000    -0.400927   
O29      O      0.801360000000     0.557150000000     0.943920000000    -0.394183   
O30      O      0.801420000000     0.626690000000     0.012860000000    -0.394117   
O31      O      0.801330000000     0.557160000000     0.012870000000    -0.394098   
O32      O      0.801450000000     0.626670000000     0.943910000000    -0.394149   
O33      O      0.247950000000     0.057220000000     0.513200000000    -0.401029   
O34      O      0.247820000000     0.124320000000     0.442970000000    -0.400865   
O35      O      0.247910000000     0.057240000000     0.442950000000    -0.401      
O36      O      0.247860000000     0.124310000000     0.513220000000    -0.401003   
O37      O      0.301190000000     0.125590000000     0.512530000000    -0.394199   
O38      O      0.301240000000     0.056080000000     0.443570000000    -0.394123   
O39      O      0.301150000000     0.125600000000     0.443590000000    -0.394128   
O40      O      0.301280000000     0.056060000000     0.512520000000    -0.394047   
O41      O      0.961330000000     0.785930000000     0.443720000000    -0.394077   
O42      O      0.030900000000     0.785770000000     0.512610000000    -0.392664   
O43      O      0.961380000000     0.785910000000     0.512670000000    -0.39403    
O44      O      0.030850000000     0.785790000000     0.443660000000    -0.392684   
O45      O      0.029730000000     0.839120000000     0.443030000000    -0.399577   
O46      O      0.962690000000     0.839240000000     0.513330000000    -0.400851   
O47      O      0.029780000000     0.839110000000     0.513280000000    -0.399464   
O48      O      0.962640000000     0.839250000000     0.443080000000    -0.40094    
O49      O      0.690250000000     0.057160000000     0.512850000000    -0.394168   
O50      O      0.690120000000     0.126700000000     0.443920000000    -0.394208   
O51      O      0.690200000000     0.057180000000     0.443910000000    -0.394185   
O52      O      0.690160000000     0.126680000000     0.512870000000    -0.394191   
O53      O      0.743490000000     0.125530000000     0.513490000000    -0.400996   
O54      O      0.743530000000     0.058450000000     0.443220000000    -0.40104    
O55      O      0.743450000000     0.125540000000     0.443230000000    -0.400936   
O56      O      0.743580000000     0.058440000000     0.513470000000    -0.400987   
O57      O      0.961620000000     0.343650000000     0.443160000000    -0.400852   
O58      O      0.028760000000     0.343500000000     0.513350000000    -0.399543   
O59      O      0.961680000000     0.343640000000     0.513410000000    -0.40086    
O60      O      0.028710000000     0.343520000000     0.443100000000    -0.399502   
O61      O      0.030020000000     0.396850000000     0.443770000000    -0.392733   
O62      O      0.960550000000     0.396970000000     0.512770000000    -0.394126   
O63      O      0.030080000000     0.396830000000     0.512720000000    -0.392732   
O64      O      0.960500000000     0.396980000000     0.443820000000    -0.394076   
O65      O      0.250580000000     0.393720000000     0.212740000000    -0.39943    
O66      O      0.272960000000     0.319710000000     0.271830000000    -0.395815   
O67      O      0.297970000000     0.346330000000     0.212760000000    -0.399527   
O68      O      0.223930000000     0.368740000000     0.271800000000    -0.395879   
O69      O      0.192490000000     0.335660000000     0.243780000000    -0.399231   
O70      O      0.266540000000     0.313240000000     0.184740000000    -0.395679   
O71      O      0.239890000000     0.288260000000     0.243800000000    -0.399327   
O72      O      0.217510000000     0.362280000000     0.184720000000    -0.395784   
O73      O      0.692610000000     0.347080000000     0.212610000000    -0.399312   
O74      O      0.766640000000     0.369480000000     0.271680000000    -0.395739   
O75      O      0.740010000000     0.394480000000     0.212610000000    -0.39939    
O76      O      0.717620000000     0.320450000000     0.271680000000    -0.395785   
O77      O      0.750700000000     0.289000000000     0.243660000000    -0.399402   
O78      O      0.773090000000     0.363030000000     0.184590000000    -0.395834   
O79      O      0.798090000000     0.336390000000     0.243660000000    -0.399331   
O80      O      0.724060000000     0.314000000000     0.184590000000    -0.395857   
O81      O      0.724270000000     0.314000000000     0.772140000000    -0.395882   
O82      O      0.798300000000     0.336400000000     0.713080000000    -0.399517   
O83      O      0.773300000000     0.363030000000     0.772150000000    -0.395745   
O84      O      0.750920000000     0.289000000000     0.713070000000    -0.399308   
O85      O      0.717830000000     0.320450000000     0.685060000000    -0.395828   
O86      O      0.740220000000     0.394480000000     0.744120000000    -0.399283   
O87      O      0.766860000000     0.369470000000     0.685060000000    -0.395889   
O88      O      0.692830000000     0.347080000000     0.744120000000    -0.399423   
O89      O      0.724630000000     0.869630000000     0.184870000000    -0.395693   
O90      O      0.798650000000     0.847250000000     0.243970000000    -0.399481   
O91      O      0.773670000000     0.820600000000     0.184900000000    -0.395708   
O92      O      0.751240000000     0.894650000000     0.243940000000    -0.399371   
O93      O      0.718170000000     0.863210000000     0.271960000000    -0.395965   
O94      O      0.740580000000     0.789170000000     0.212920000000    -0.399452   
O95      O      0.767200000000     0.814180000000     0.271980000000    -0.395927   
O96      O      0.693180000000     0.836560000000     0.212900000000    -0.399305   
O97      O      0.773890000000     0.820480000000     0.771730000000    -0.395755   
O98      O      0.751520000000     0.894490000000     0.712620000000    -0.399446   
O99      O      0.724860000000     0.869520000000     0.771690000000    -0.395718   
O100     O      0.798920000000     0.847090000000     0.712660000000    -0.399334   
O101     O      0.767480000000     0.814010000000     0.684640000000    -0.395878   
O102     O      0.693430000000     0.836430000000     0.743660000000    -0.399425   
O103     O      0.718450000000     0.863040000000     0.684600000000    -0.395783   
O104     O      0.740820000000     0.789030000000     0.743700000000    -0.399418   
O105     O      0.218110000000     0.819740000000     0.184290000000    -0.395869   
O106     O      0.240490000000     0.893760000000     0.243360000000    -0.399269   
O107     O      0.267130000000     0.868770000000     0.184300000000    -0.395744   
O108     O      0.193100000000     0.846370000000     0.243360000000    -0.39935    
O109     O      0.224550000000     0.813300000000     0.271380000000    -0.395806   
O110     O      0.298580000000     0.835690000000     0.212310000000    -0.399422   
O111     O      0.273580000000     0.862320000000     0.271380000000    -0.395656   
O112     O      0.251190000000     0.788290000000     0.212310000000    -0.399449   
O113     O      0.251390000000     0.788280000000     0.743830000000    -0.399288   
O114     O      0.273780000000     0.862310000000     0.684750000000    -0.395712   
O115     O      0.298790000000     0.835690000000     0.743830000000    -0.399305   
O116     O      0.224760000000     0.813280000000     0.684760000000    -0.395786   
O117     O      0.193310000000     0.846360000000     0.712780000000    -0.399359   
O118     O      0.267340000000     0.868770000000     0.771840000000    -0.395812   
O119     O      0.240700000000     0.893750000000     0.712770000000    -0.399466   
O120     O      0.218310000000     0.819730000000     0.771850000000    -0.39573    
O121     O      0.298220000000     0.346200000000     0.743540000000    -0.39931    
O122     O      0.224200000000     0.368590000000     0.684460000000    -0.395659   
O123     O      0.250820000000     0.393590000000     0.743520000000    -0.399308   
O124     O      0.273230000000     0.319550000000     0.684470000000    -0.395802   
O125     O      0.240150000000     0.288110000000     0.712500000000    -0.399239   
O126     O      0.217730000000     0.362160000000     0.771540000000    -0.395697   
O127     O      0.192750000000     0.335510000000     0.712480000000    -0.399265   
O128     O      0.266770000000     0.313130000000     0.771570000000    -0.395629   


