data_structure

_audit_creation_method RASPA-1.0
_audit_creation_date 2023-6-5
_audit_author_name 'Poobodin Mano'

_cell_length_a    48.5007
_cell_length_b    48.5003
_cell_length_c    29.0262
_cell_angle_alpha 89.9778
_cell_angle_beta  90.0222
_cell_angle_gamma 119.983
_cell_volume      59140.9

_symmetry_cell_setting          triclinic
_symmetry_space_group_name_Hall 'P 1'
_symmetry_space_group_name_H-M  'P 1'
_symmetry_Int_Tables_number     1

_symmetry_equiv_pos_as_xyz 'x,y,z'

loop_
_atom_site_label
_atom_site_type_symbol
_atom_site_fract_x
_atom_site_fract_y
_atom_site_fract_z
_atom_site_charge
C1       C      0.894920000000     0.695280000000     0.666320000000     0.403268   
C2       C      0.773500000000     0.640740000000     0.615670000000     0.403001   
C3       C      0.818050000000     0.666410000000     0.728840000000     0.403561   
C4       C      0.850360000000     0.669600000000     0.553150000000     0.403534   
C5       C      0.106960000000     0.801220000000     0.781830000000     0.403398   
C6       C      0.228380000000     0.868020000000     0.832480000000     0.403273   
C7       C      0.183830000000     0.849160000000     0.719300000000     0.40361    
C8       C      0.151520000000     0.820060000000     0.895010000000     0.403594   
C9       C      0.440330000000     0.974060000000     0.948300000000     0.402858   
C10      C      0.561760000000     0.028750000000     0.999000000000     0.403204   
C11      C      0.517210000000     0.003020000000     0.885810000000     0.403852   
C12      C      0.484870000000     0.999800000000     0.061490000000     0.403385   
C13      C      0.106930000000     0.307720000000     0.281920000000     0.403009   
C14      C      0.228330000000     0.362330000000     0.332720000000     0.403115   
C15      C      0.183830000000     0.336650000000     0.219490000000     0.403575   
C16      C      0.151440000000     0.333410000000     0.395150000000     0.403537   
C17      C      0.773670000000     0.134840000000     0.114990000000     0.403395   
C18      C      0.895060000000     0.201700000000     0.165780000000     0.402962   
C19      C      0.850550000000     0.182840000000     0.052550000000     0.403761   
C20      C      0.818160000000     0.153680000000     0.228220000000     0.40346    
C21      C      0.561550000000     0.534920000000     0.499810000000     0.403161   
C22      C      0.440150000000     0.468190000000     0.449040000000     0.403521   
C23      C      0.484660000000     0.486980000000     0.562260000000     0.403588   
C24      C      0.517040000000     0.516130000000     0.386590000000     0.403426   
C25      C      0.134410000000     0.362340000000     0.832630000000     0.402993   
C26      C      0.201230000000     0.307720000000     0.782000000000     0.403293   
C27      C      0.182400000000     0.333420000000     0.895170000000     0.40339    
C28      C      0.153240000000     0.336650000000     0.719460000000     0.403507   
C29      C      0.307120000000     0.201670000000     0.666140000000     0.403108   
C30      C      0.361660000000     0.134800000000     0.615400000000     0.403172   
C31      C      0.336010000000     0.153650000000     0.728610000000     0.403554   
C32      C      0.332770000000     0.182830000000     0.552930000000     0.403615   
C33      C      0.028400000000     0.468220000000     0.948680000000     0.40313    
C34      C      0.973720000000     0.534960000000     0.999390000000     0.403032   
C35      C      0.999440000000     0.516180000000     0.886190000000     0.40346    
C36      C      0.002690000000     0.487010000000     0.061880000000     0.403555   
C37      C      0.694690000000     0.801210000000     0.281920000000     0.403278   
C38      C      0.640060000000     0.868030000000     0.332470000000     0.403092   
C39      C      0.665770000000     0.849180000000     0.219330000000     0.403545   
C40      C      0.668980000000     0.820060000000     0.395060000000     0.403667   
C41      C      0.800770000000     0.695270000000     0.166330000000     0.403256   
C42      C      0.867650000000     0.640730000000     0.115650000000     0.403281   
C43      C      0.848790000000     0.666380000000     0.228840000000     0.403731   
C44      C      0.819630000000     0.669620000000     0.053150000000     0.403536   
C45      C      0.467420000000     0.028760000000     0.499010000000     0.403362   
C46      C      0.534160000000     0.974070000000     0.448310000000     0.403062   
C47      C      0.515370000000     0.999790000000     0.561500000000     0.403564   
C48      C      0.486210000000     0.003040000000     0.385810000000     0.403748   
C49      C      0.307110000000     0.107430000000     0.166090000000     0.403088   
C50      C      0.361660000000     0.228860000000     0.115460000000     0.403178   
C51      C      0.335980000000     0.184300000000     0.228620000000     0.403519   
C52      C      0.332790000000     0.152000000000     0.052930000000     0.403626   
C53      C      0.534220000000     0.562270000000     0.949050000000     0.403072   
C54      C      0.467490000000     0.440860000000     0.999790000000     0.403261   
C55      C      0.486290000000     0.485380000000     0.886580000000     0.403363   
C56      C      0.515420000000     0.517740000000     0.062270000000     0.403611   
C57      C      0.201200000000     0.895440000000     0.281770000000     0.403452   
C58      C      0.134410000000     0.774040000000     0.332540000000     0.403252   
C59      C      0.153230000000     0.818550000000     0.219320000000     0.403697   
C60      C      0.182380000000     0.850930000000     0.394990000000     0.403497   
C61      C      0.028410000000     0.562180000000     0.448680000000     0.403263   
C62      C      0.973730000000     0.440750000000     0.499370000000     0.403287   
C63      C      0.999460000000     0.485290000000     0.386190000000     0.403405   
C64      C      0.002680000000     0.517630000000     0.561870000000     0.403716   
C65      C      0.867590000000     0.228760000000     0.615050000000     0.40311    
C66      C      0.800710000000     0.107340000000     0.665730000000     0.403036   
C67      C      0.819600000000     0.151900000000     0.552540000000     0.403498   
C68      C      0.848710000000     0.184210000000     0.728240000000     0.40341    
C69      C      0.640060000000     0.774060000000     0.832620000000     0.403127   
C70      C      0.694680000000     0.895450000000     0.781780000000     0.402966   
C71      C      0.668990000000     0.850960000000     0.895020000000     0.403578   
C72      C      0.665740000000     0.818540000000     0.719370000000     0.403409   
C73      C      0.799560000000     0.057610000000     0.689020000000    -0.0225037  
C74      C      0.692530000000     0.943820000000     0.756350000000    -0.022617   
C75      C      0.743270000000     0.945130000000     0.758480000000    -0.0224921  
C76      C      0.747320000000     0.975280000000     0.739820000000     0.0142457  
C77      C      0.718580000000     0.974950000000     0.739200000000     0.0132412  
C78      C      0.716690000000     0.001420000000     0.723700000000    -0.0651682  
C79      C      0.750180000000     0.059010000000     0.691070000000    -0.0225248  
C80      C      0.775430000000     0.001370000000     0.723750000000    -0.0667202  
C81      C      0.745060000000     0.027860000000     0.708240000000     0.0132607  
C82      C      0.773440000000     0.027480000000     0.707660000000     0.0143173  
C83      C      0.918130000000     0.277100000000     0.589760000000    -0.0224632  
C84      C      0.925110000000     0.391060000000     0.522580000000    -0.0224495  
C85      C      0.975840000000     0.392350000000     0.524710000000    -0.0225336  
C86      C      0.949770000000     0.361200000000     0.541800000000     0.0132753  
C87      C      0.921040000000     0.360890000000     0.541170000000     0.0142707  
C88      C      0.892910000000     0.334780000000     0.557180000000    -0.0667459  
C89      C      0.868750000000     0.278500000000     0.591790000000    -0.0225213  
C90      C      0.951640000000     0.334720000000     0.557240000000    -0.065193   
C91      C      0.894880000000     0.308650000000     0.573210000000     0.0143222  
C92      C      0.923260000000     0.308260000000     0.572640000000     0.0132291  
C93      C      0.133290000000     0.724330000000     0.355880000000    -0.0224891  
C94      C      0.026280000000     0.610550000000     0.423290000000    -0.0225672  
C95      C      0.077020000000     0.611860000000     0.425420000000    -0.0224652  
C96      C      0.081070000000     0.642010000000     0.406750000000     0.0142474  
C97      C      0.052330000000     0.641680000000     0.406120000000     0.0133301  
C98      C      0.050430000000     0.668140000000     0.390610000000    -0.0653134  
C99      C      0.083890000000     0.725710000000     0.357920000000    -0.0226593  
C100     C      0.109170000000     0.668100000000     0.390660000000    -0.0666865  
C101     C      0.078790000000     0.694570000000     0.375130000000     0.0133647  
C102     C      0.107180000000     0.694200000000     0.374550000000     0.0142655  
C103     C      0.535310000000     0.611960000000     0.925700000000    -0.0223943  
C104     C      0.642240000000     0.725720000000     0.858080000000    -0.0225662  
C105     C      0.591480000000     0.724370000000     0.855960000000    -0.0224796  
C106     C      0.587460000000     0.694250000000     0.874690000000     0.0142393  
C107     C      0.616210000000     0.694600000000     0.875310000000     0.0133293  
C108     C      0.618140000000     0.668160000000     0.890860000000    -0.0653555  
C109     C      0.584720000000     0.610610000000     0.923630000000    -0.022707   
C110     C      0.559370000000     0.668160000000     0.890830000000    -0.0666919  
C111     C      0.589790000000     0.641730000000     0.906390000000     0.0133891  
C112     C      0.561390000000     0.642080000000     0.906980000000     0.014216   
C113     C      0.309300000000     0.059070000000     0.191410000000    -0.0225222  
C114     C      0.202300000000     0.945150000000     0.258500000000    -0.0224115  
C115     C      0.251720000000     0.943810000000     0.256450000000    -0.0226389  
C116     C      0.256810000000     0.974960000000     0.239340000000     0.0132747  
C117     C      0.228410000000     0.975310000000     0.239930000000     0.014207   
C118     C      0.226400000000     0.001430000000     0.223890000000    -0.0666716  
C119     C      0.258540000000     0.057710000000     0.189290000000    -0.0224193  
C120     C      0.285170000000     0.001440000000     0.223930000000    -0.0651848  
C121     C      0.254510000000     0.027550000000     0.207880000000     0.0142685  
C122     C      0.283260000000     0.027910000000     0.208500000000     0.013286   
C123     C      0.359460000000     0.277220000000     0.090150000000    -0.0225562  
C124     C      0.466420000000     0.391160000000     0.023050000000    -0.0223573  
C125     C      0.416990000000     0.392480000000     0.025110000000    -0.0225915  
C126     C      0.411920000000     0.361330000000     0.042220000000     0.0133491  
C127     C      0.440320000000     0.360990000000     0.041630000000     0.0142491  
C128     C      0.442340000000     0.334880000000     0.057660000000    -0.0667381  
C129     C      0.410230000000     0.278600000000     0.092250000000    -0.0224649  
C130     C      0.383560000000     0.334850000000     0.057640000000    -0.0653025  
C131     C      0.414250000000     0.308750000000     0.073670000000     0.0142985  
C132     C      0.385490000000     0.308380000000     0.073060000000     0.0133054  
C133     C      0.640050000000     0.794130000000     0.467180000000    -0.022589   
C134     C      0.694650000000     0.821450000000     0.647280000000    -0.022571   
C135     C      0.637100000000     0.797500000000     0.644790000000    -0.022984   
C136     C      0.650150000000     0.800060000000     0.597750000000     0.0139838  
C137     C      0.683090000000     0.815180000000     0.599010000000     0.0137348  
C138     C      0.701250000000     0.825080000000     0.558520000000    -0.0660257  
C139     C      0.697610000000     0.827680000000     0.469670000000    -0.0230107  
C140     C      0.633450000000     0.791210000000     0.555950000000    -0.0660003  
C141     C      0.684550000000     0.817250000000     0.516720000000     0.0140117  
C142     C      0.651610000000     0.799450000000     0.515450000000     0.0137173  
C143     C      0.697620000000     0.871960000000     0.969610000000    -0.0229044  
C144     C      0.637130000000     0.841590000000     0.144740000000    -0.0229101  
C145     C      0.694680000000     0.875170000000     0.147220000000    -0.0225527  
C146     C      0.683120000000     0.869900000000     0.098960000000     0.0137194  
C147     C      0.650180000000     0.852090000000     0.097700000000     0.0140059  
C148     C      0.633470000000     0.844270000000     0.055900000000    -0.0660866  
C149     C      0.640070000000     0.847980000000     0.967140000000    -0.0227074  
C150     C      0.701270000000     0.878170000000     0.058460000000    -0.0659942  
C151     C      0.651630000000     0.854190000000     0.015400000000     0.0138578  
C152     C      0.684570000000     0.869330000000     0.016660000000     0.0139924  
C153     C      0.799620000000     0.743850000000     0.189570000000    -0.0224231  
C154     C      0.692560000000     0.750680000000     0.256640000000    -0.0226608  
C155     C      0.743300000000     0.800090000000     0.258740000000    -0.0225139  
C156     C      0.747350000000     0.773980000000     0.240180000000     0.0142844  
C157     C      0.718620000000     0.745590000000     0.239570000000     0.0133505  
C158     C      0.716730000000     0.717220000000     0.224150000000    -0.0653293  
C159     C      0.750230000000     0.693090000000     0.191640000000    -0.0226478  
C160     C      0.775470000000     0.775980000000     0.224170000000    -0.0667455  
C161     C      0.745110000000     0.719130000000     0.208750000000     0.0133465  
C162     C      0.773490000000     0.747880000000     0.208150000000     0.0142615  
C163     C      0.642230000000     0.918560000000     0.357780000000    -0.0226263  
C164     C      0.535250000000     0.925470000000     0.425040000000    -0.0224103  
C165     C      0.584660000000     0.976200000000     0.422950000000    -0.0225847  
C166     C      0.589750000000     0.950150000000     0.405820000000     0.0133154  
C167     C      0.561350000000     0.921410000000     0.406420000000     0.0142557  
C168     C      0.559340000000     0.893300000000     0.390360000000    -0.0667557  
C169     C      0.591470000000     0.869170000000     0.355690000000    -0.0225051  
C170     C      0.618100000000     0.952040000000     0.390360000000    -0.0652609  
C171     C      0.587440000000     0.895290000000     0.374310000000     0.0142981  
C172     C      0.616190000000     0.923670000000     0.374910000000     0.0133016  
C173     C      0.973760000000     0.514700000000     0.633970000000    -0.0225972  
C174     C      0.028350000000     0.542120000000     0.814070000000    -0.0225643  
C175     C      0.970800000000     0.508560000000     0.811590000000    -0.0228098  
C176     C      0.983850000000     0.519000000000     0.764530000000     0.0138389  
C177     C      0.016800000000     0.536790000000     0.765790000000     0.0138572  
C178     C      0.034960000000     0.544990000000     0.725310000000    -0.0661217  
C179     C      0.031310000000     0.538650000000     0.636470000000    -0.0229661  
C180     C      0.967160000000     0.511120000000     0.722730000000    -0.0659458  
C181     C      0.018260000000     0.536090000000     0.683500000000     0.0140824  
C182     C      0.985320000000     0.520970000000     0.682240000000     0.0136447  
C183     C      0.973780000000     0.461030000000     0.133990000000    -0.0226264  
C184     C      0.028380000000     0.488260000000     0.314080000000    -0.022582   
C185     C      0.970830000000     0.464290000000     0.311600000000    -0.0228645  
C186     C      0.983880000000     0.466890000000     0.264550000000     0.013866   
C187     C      0.016820000000     0.482020000000     0.265810000000     0.0138335  
C188     C      0.034980000000     0.491950000000     0.225320000000    -0.0660516  
C189     C      0.031330000000     0.494610000000     0.136470000000    -0.0229095  
C190     C      0.967180000000     0.458060000000     0.222750000000    -0.0659604  
C191     C      0.018280000000     0.484150000000     0.183520000000     0.0140513  
C192     C      0.985340000000     0.466330000000     0.182260000000     0.0136686  
C193     C      0.925110000000     0.536040000000     0.022710000000    -0.0223851  
C194     C      0.918190000000     0.642940000000     0.090270000000    -0.0226053  
C195     C      0.868810000000     0.592170000000     0.092350000000    -0.022514   
C196     C      0.894930000000     0.588160000000     0.073670000000     0.0142693  
C197     C      0.923310000000     0.616920000000     0.073070000000     0.0133364  
C198     C      0.951670000000     0.618860000000     0.057550000000    -0.0652801  
C199     C      0.975840000000     0.585450000000     0.024820000000    -0.0225053  
C200     C      0.892950000000     0.560080000000     0.057530000000    -0.0667085  
C201     C      0.949790000000     0.590520000000     0.042030000000     0.0132956  
C202     C      0.921060000000     0.562120000000     0.041410000000     0.0142774  
C203     C      0.364650000000     0.161250000000     0.803210000000    -0.0228673  
C204     C      0.304160000000     0.130990000000     0.978340000000    -0.0229904  
C205     C      0.361710000000     0.154960000000     0.980820000000    -0.0225892  
C206     C      0.350150000000     0.148700000000     0.932550000000     0.0137371  
C207     C      0.317210000000     0.133570000000     0.931290000000     0.0139813  
C208     C      0.300510000000     0.124730000000     0.889490000000    -0.0660339  
C209     C      0.307100000000     0.127690000000     0.800730000000    -0.0226361  
C210     C      0.368310000000     0.158620000000     0.892060000000    -0.0660505  
C211     C      0.318660000000     0.133000000000     0.849000000000     0.0137733  
C212     C      0.351610000000     0.150790000000     0.850260000000     0.0139484  
C213     C      0.307060000000     0.181360000000     0.300720000000    -0.0226692  
C214     C      0.361680000000     0.208770000000     0.480810000000    -0.0226098  
C215     C      0.304120000000     0.175220000000     0.478340000000    -0.022967   
C216     C      0.317170000000     0.185660000000     0.431290000000     0.0139858  
C217     C      0.350120000000     0.203450000000     0.432540000000     0.0137449  
C218     C      0.368270000000     0.211650000000     0.392050000000    -0.0660038  
C219     C      0.364620000000     0.205320000000     0.303210000000    -0.0229222  
C220     C      0.300470000000     0.177780000000     0.389480000000    -0.0660353  
C221     C      0.351570000000     0.202750000000     0.350250000000     0.0139539  
C222     C      0.318630000000     0.187630000000     0.348990000000     0.0137904  
C223     C      0.416930000000     0.026630000000     0.524440000000    -0.0225928  
C224     C      0.410220000000     0.133640000000     0.592060000000    -0.0224896  
C225     C      0.359450000000     0.084270000000     0.589980000000    -0.0225535  
C226     C      0.385470000000     0.079160000000     0.572750000000     0.0132896  
C227     C      0.414220000000     0.107530000000     0.573350000000     0.0142863  
C228     C      0.442300000000     0.109520000000     0.557200000000    -0.0667107  
C229     C      0.466340000000     0.077360000000     0.522330000000    -0.0224395  
C230     C      0.383530000000     0.050790000000     0.557210000000    -0.0652704  
C231     C      0.440260000000     0.081410000000     0.541050000000     0.0142471  
C232     C      0.411870000000     0.052680000000     0.541670000000     0.0133268  
C233     C      0.077010000000     0.467130000000     0.925380000000    -0.02252    
C234     C      0.083890000000     0.360180000000     0.857980000000    -0.0226336  
C235     C      0.133280000000     0.410930000000     0.855890000000    -0.0224406  
C236     C      0.107170000000     0.414960000000     0.874530000000     0.0142357  
C237     C      0.078790000000     0.386210000000     0.875140000000     0.0133524  
C238     C      0.050420000000     0.384290000000     0.890630000000    -0.0653301  
C239     C      0.026270000000     0.417720000000     0.923290000000    -0.0226033  
C240     C      0.109160000000     0.443060000000     0.890630000000    -0.0667347  
C241     C      0.052320000000     0.412650000000     0.906110000000     0.013338   
C242     C      0.081050000000     0.441040000000     0.906720000000     0.0142836  
C243     C      0.309310000000     0.252210000000     0.691490000000    -0.0225802  
C244     C      0.202340000000     0.259120000000     0.758770000000    -0.0225238  
C245     C      0.251750000000     0.309860000000     0.756670000000    -0.0226215  
C246     C      0.256830000000     0.283810000000     0.739540000000     0.0133194  
C247     C      0.228440000000     0.255070000000     0.740160000000     0.0143072  
C248     C      0.226430000000     0.226960000000     0.724100000000    -0.0667745  
C249     C      0.258550000000     0.202820000000     0.689420000000    -0.0225227  
C250     C      0.285190000000     0.285700000000     0.724080000000    -0.0652636  
C251     C      0.254530000000     0.228940000000     0.708040000000     0.0143131  
C252     C      0.283280000000     0.257320000000     0.708640000000     0.0132798  
C253     C      0.463650000000     0.494610000000     0.636830000000    -0.0228923  
C254     C      0.493900000000     0.464350000000     0.812020000000    -0.0228654  
C255     C      0.460320000000     0.488330000000     0.814450000000    -0.0225655  
C256     C      0.465610000000     0.482070000000     0.766190000000     0.0137245  
C257     C      0.483430000000     0.466930000000     0.764960000000     0.0139599  
C258     C      0.491290000000     0.458080000000     0.723170000000    -0.0660404  
C259     C      0.487630000000     0.461030000000     0.634410000000    -0.0225309  
C260     C      0.457380000000     0.491990000000     0.725680000000    -0.0659792  
C261     C      0.481390000000     0.466350000000     0.682670000000     0.0137503  
C262     C      0.466250000000     0.484160000000     0.683890000000     0.0139413  
C263     C      0.541380000000     0.514780000000     0.134410000000    -0.0225324  
C264     C      0.514090000000     0.542100000000     0.314450000000    -0.0225922  
C265     C      0.538070000000     0.508510000000     0.312020000000    -0.0229991  
C266     C      0.535490000000     0.518980000000     0.264960000000     0.0139816  
C267     C      0.520350000000     0.536800000000     0.266190000000     0.0137676  
C268     C      0.510420000000     0.545030000000     0.225690000000    -0.0660559  
C269     C      0.507800000000     0.538760000000     0.136840000000    -0.0229112  
C270     C      0.544330000000     0.511130000000     0.223170000000    -0.0660057  
C271     C      0.518250000000     0.536160000000     0.183900000000     0.0139818  
C272     C      0.536070000000     0.521020000000     0.182670000000     0.0137404  
C273     C      0.841100000000     0.205250000000     0.802800000000    -0.022935   
C274     C      0.871570000000     0.175220000000     0.977990000000    -0.0229111  
C275     C      0.847560000000     0.208780000000     0.980400000000    -0.0226544  
C276     C      0.853790000000     0.203440000000     0.932140000000     0.0137317  
C277     C      0.868940000000     0.185640000000     0.930920000000     0.0139582  
C278     C      0.877750000000     0.177740000000     0.889130000000    -0.0660695  
C279     C      0.874700000000     0.181280000000     0.800370000000    -0.0226593  
C280     C      0.843810000000     0.211620000000     0.891630000000    -0.065985   
C281     C      0.869430000000     0.187580000000     0.848620000000     0.0137898  
C282     C      0.851610000000     0.202710000000     0.849850000000     0.0139451  
C283     C      0.827230000000     0.130900000000     0.477960000000    -0.0228899  
C284     C      0.797110000000     0.161280000000     0.302770000000    -0.0228558  
C285     C      0.821080000000     0.127680000000     0.300350000000    -0.022671   
C286     C      0.814780000000     0.132950000000     0.348600000000     0.0138088  
C287     C      0.799650000000     0.150780000000     0.349830000000     0.0139357  
C288     C      0.790780000000     0.158610000000     0.391610000000    -0.066014   
C289     C      0.793680000000     0.154910000000     0.480380000000    -0.0224832  
C290     C      0.824670000000     0.124680000000     0.389110000000    -0.0660739  
C291     C      0.799020000000     0.148690000000     0.432120000000     0.0137127  
C292     C      0.816820000000     0.133530000000     0.430900000000     0.0139846  
C293     C      0.154430000000     0.362330000000     0.467260000000    -0.022585   
C294     C      0.127250000000     0.307730000000     0.647360000000    -0.0226575  
C295     C      0.160830000000     0.365280000000     0.644870000000    -0.0227869  
C296     C      0.150330000000     0.352240000000     0.597830000000     0.0139246  
C297     C      0.132520000000     0.319300000000     0.599090000000     0.0137909  
C298     C      0.124250000000     0.301140000000     0.558600000000    -0.0660333  
C299     C      0.130450000000     0.304780000000     0.469740000000    -0.0228943  
C300     C      0.158150000000     0.368940000000     0.556030000000    -0.0660275  
C301     C      0.133080000000     0.317830000000     0.516800000000     0.0139775  
C302     C      0.148220000000     0.350780000000     0.515530000000     0.0137343  
C303     C      0.204860000000     0.365290000000     0.144900000000    -0.0229732  
C304     C      0.174780000000     0.304790000000     0.969770000000    -0.0230225  
C305     C      0.208330000000     0.362350000000     0.967300000000    -0.0226576  
C306     C      0.203000000000     0.350790000000     0.015570000000     0.0138156  
C307     C      0.185210000000     0.317840000000     0.016820000000     0.0140557  
C308     C      0.177330000000     0.301140000000     0.058630000000    -0.0660457  
C309     C      0.180910000000     0.307730000000     0.147390000000    -0.0226637  
C310     C      0.211200000000     0.368940000000     0.056060000000    -0.0660193  
C311     C      0.187180000000     0.319300000000     0.099120000000     0.0137905  
C312     C      0.202300000000     0.352240000000     0.097860000000     0.0139807  
C313     C      0.944780000000     0.202840000000     0.189120000000    -0.0224851  
C314     C      0.058560000000     0.309860000000     0.256500000000    -0.0225323  
C315     C      0.057240000000     0.259120000000     0.258630000000    -0.0225426  
C316     C      0.027100000000     0.255080000000     0.239970000000     0.0142832  
C317     C      0.027430000000     0.283810000000     0.239340000000     0.0133006  
C318     C      0.000970000000     0.285710000000     0.223830000000    -0.065247   
C319     C      0.943380000000     0.252230000000     0.191160000000    -0.0226142  
C320     C      0.001010000000     0.226970000000     0.223880000000    -0.0666369  
C321     C      0.974530000000     0.257340000000     0.208360000000     0.0132776  
C322     C      0.974900000000     0.228950000000     0.207780000000     0.0142338  
C323     C      0.276680000000     0.360160000000     0.358160000000    -0.022665   
C324     C      0.390450000000     0.467100000000     0.425700000000    -0.0224285  
C325     C      0.391800000000     0.417690000000     0.423640000000    -0.0225848  
C326     C      0.360680000000     0.412620000000     0.406420000000     0.0133351  
C327     C      0.360320000000     0.441010000000     0.407010000000     0.0142711  
C328     C      0.334240000000     0.443030000000     0.390880000000    -0.0667543  
C329     C      0.278020000000     0.410920000000     0.356050000000    -0.0225172  
C330     C      0.334240000000     0.384260000000     0.390910000000    -0.0653358  
C331     C      0.308150000000     0.414940000000     0.374750000000     0.0142727  
C332     C      0.307800000000     0.386190000000     0.375370000000     0.013353   
C333     C      0.541370000000     0.028700000000     0.633600000000    -0.0226593  
C334     C      0.514230000000     0.974100000000     0.813700000000    -0.0224998  
C335     C      0.538210000000     0.031650000000     0.811220000000    -0.022972   
C336     C      0.535590000000     0.018600000000     0.764160000000     0.0141203  
C337     C      0.520450000000     0.985650000000     0.765420000000     0.0135816  
C338     C      0.510490000000     0.967500000000     0.724930000000    -0.0659119  
C339     C      0.507780000000     0.971150000000     0.636090000000    -0.0228652  
C340     C      0.544390000000     0.035300000000     0.722360000000    -0.0661708  
C341     C      0.518270000000     0.984200000000     0.683130000000     0.0138327  
C342     C      0.536090000000     0.017140000000     0.681870000000     0.0139056  
C343     C      0.487780000000     0.028710000000     0.133580000000    -0.0225669  
C344     C      0.460290000000     0.974120000000     0.313680000000    -0.0225863  
C345     C      0.493830000000     0.031670000000     0.311200000000    -0.0229433  
C346     C      0.483420000000     0.018620000000     0.264140000000     0.0140878  
C347     C      0.465630000000     0.985680000000     0.265400000000     0.0136386  
C348     C      0.457460000000     0.967520000000     0.224920000000    -0.0659458  
C349     C      0.463840000000     0.971160000000     0.136080000000    -0.0229413  
C350     C      0.491320000000     0.035320000000     0.222340000000    -0.0661277  
C351     C      0.466380000000     0.984210000000     0.183110000000     0.0138781  
C352     C      0.481490000000     0.017160000000     0.181840000000     0.0138506  
C353     C      0.610150000000     0.026630000000     0.024380000000    -0.0225785  
C354     C      0.723940000000     0.133680000000     0.091670000000    -0.0224293  
C355     C      0.725340000000     0.084300000000     0.089630000000    -0.0225463  
C356     C      0.694190000000     0.079180000000     0.072460000000     0.0133264  
C357     C      0.693810000000     0.107560000000     0.073040000000     0.01424    
C358     C      0.667680000000     0.109540000000     0.056950000000    -0.0666983  
C359     C      0.611440000000     0.077360000000     0.022250000000    -0.022257   
C360     C      0.667750000000     0.050810000000     0.057010000000    -0.0652655  
C361     C      0.641600000000     0.081420000000     0.040900000000     0.0142255  
C362     C      0.641280000000     0.052690000000     0.041530000000     0.0133509  
C363     C      0.180890000000     0.875150000000     0.647170000000    -0.0227044  
C364     C      0.208330000000     0.847960000000     0.467140000000    -0.0226273  
C365     C      0.174760000000     0.871960000000     0.469550000000    -0.0229743  
C366     C      0.185190000000     0.869340000000     0.516620000000     0.0140017  
C367     C      0.203000000000     0.854190000000     0.515390000000     0.0137686  
C368     C      0.211200000000     0.844230000000     0.555900000000    -0.066093   
C369     C      0.204860000000     0.841550000000     0.644740000000    -0.0228402  
C370     C      0.177310000000     0.878160000000     0.558400000000    -0.0660912  
C371     C      0.202300000000     0.852030000000     0.597680000000     0.0139513  
C372     C      0.187170000000     0.869860000000     0.598910000000     0.0138068  
C373     C      0.154510000000     0.794130000000     0.967150000000    -0.0226587  
C374     C      0.127240000000     0.821480000000     0.147190000000    -0.0225687  
C375     C      0.160830000000     0.797500000000     0.144760000000    -0.0229557  
C376     C      0.150340000000     0.800060000000     0.097710000000     0.013988   
C377     C      0.132520000000     0.815200000000     0.098930000000     0.0137433  
C378     C      0.124270000000     0.825100000000     0.058420000000    -0.066017   
C379     C      0.130510000000     0.827700000000     0.969580000000    -0.0229953  
C380     C      0.158190000000     0.791210000000     0.055920000000    -0.066008   
C381     C      0.133130000000     0.817270000000     0.016640000000     0.0140555  
C382     C      0.148280000000     0.799460000000     0.015410000000     0.013815   
C383     C      0.278110000000     0.869150000000     0.855750000000    -0.0224594  
C384     C      0.391950000000     0.976190000000     0.922940000000    -0.0225681  
C385     C      0.390640000000     0.925450000000     0.925070000000    -0.0225181  
C386     C      0.360480000000     0.921400000000     0.906450000000     0.0142868  
C387     C      0.360810000000     0.950130000000     0.905820000000     0.0132949  
C388     C      0.334340000000     0.952030000000     0.890360000000    -0.0652973  
C389     C      0.276730000000     0.918540000000     0.857780000000    -0.0224943  
C390     C      0.334380000000     0.893280000000     0.890410000000    -0.0667717  
C391     C      0.307880000000     0.923650000000     0.874930000000     0.0132683  
C392     C      0.308260000000     0.895260000000     0.874350000000     0.0142862  
C393     C      0.827240000000     0.698260000000     0.978560000000    -0.0229689  
C394     C      0.797030000000     0.637770000000     0.803430000000    -0.0229248  
C395     C      0.820990000000     0.695320000000     0.800950000000    -0.022594   
C396     C      0.814720000000     0.683760000000     0.849210000000     0.0137253  
C397     C      0.799590000000     0.650810000000     0.850470000000     0.0139982  
C398     C      0.790750000000     0.634110000000     0.892270000000    -0.0660973  
C399     C      0.793680000000     0.640700000000     0.981030000000    -0.0226938  
C400     C      0.824630000000     0.701910000000     0.889710000000    -0.0660038  
C401     C      0.799000000000     0.652270000000     0.932760000000     0.0137931  
C402     C      0.816800000000     0.685210000000     0.931510000000     0.0139502  
C403     C      0.847400000000     0.640680000000     0.481050000000    -0.0226118  
C404     C      0.874750000000     0.695290000000     0.300960000000    -0.0224782  
C405     C      0.841190000000     0.637740000000     0.303430000000    -0.0229501  
C406     C      0.851650000000     0.650790000000     0.350480000000     0.0139897  
C407     C      0.869450000000     0.683730000000     0.349230000000     0.0136853  
C408     C      0.877670000000     0.701890000000     0.389720000000    -0.0659793  
C409     C      0.871370000000     0.698240000000     0.478560000000    -0.0228989  
C410     C      0.843780000000     0.634090000000     0.392290000000    -0.066035   
C411     C      0.868790000000     0.685190000000     0.431520000000     0.0139442  
C412     C      0.853660000000     0.652240000000     0.432780000000     0.0137726  
C413     C      0.609930000000     0.585410000000     0.525170000000    -0.0225501  
C414     C      0.723770000000     0.592170000000     0.592440000000    -0.0224498  
C415     C      0.725140000000     0.642940000000     0.590340000000    -0.0226756  
C416     C      0.693990000000     0.616910000000     0.573220000000     0.0133715  
C417     C      0.693620000000     0.588150000000     0.573830000000     0.0142293  
C418     C      0.667500000000     0.560060000000     0.557780000000    -0.0666853  
C419     C      0.611240000000     0.535990000000     0.523100000000    -0.0223316  
C420     C      0.667540000000     0.618840000000     0.557760000000    -0.0653086  
C421     C      0.641400000000     0.562080000000     0.541720000000     0.0142142  
C422     C      0.641060000000     0.590480000000     0.542320000000     0.0133232  
C423     C      0.058580000000     0.750690000000     0.756550000000    -0.0226048  
C424     C      0.944650000000     0.743860000000     0.689510000000    -0.0224948  
C425     C      0.943290000000     0.693100000000     0.691620000000    -0.0224619  
C426     C      0.974460000000     0.719140000000     0.708680000000     0.013197   
C427     C      0.974820000000     0.747890000000     0.708060000000     0.0142633  
C428     C      0.000950000000     0.776000000000     0.724050000000    -0.0667253  
C429     C      0.057240000000     0.800110000000     0.758600000000    -0.0225034  
C430     C      0.000930000000     0.717230000000     0.724090000000    -0.0651546  
C431     C      0.027070000000     0.774000000000     0.740060000000     0.014315   
C432     C      0.027420000000     0.745600000000     0.739470000000     0.0132744  
Cu1      Cu     0.836950000000     0.694680000000     0.636920000000     0.844933   
Cu2      Cu     0.831460000000     0.641330000000     0.645080000000     0.844957   
Cu3      Cu     0.164930000000     0.858550000000     0.811200000000     0.845121   
Cu4      Cu     0.170410000000     0.810680000000     0.803100000000     0.844814   
Cu5      Cu     0.503760000000     0.028070000000     0.969560000000     0.845024   
Cu6      Cu     0.498330000000     0.974740000000     0.977740000000     0.844827   
Cu7      Cu     0.170360000000     0.361700000000     0.303230000000     0.844834   
Cu8      Cu     0.164900000000     0.308360000000     0.311400000000     0.845038   
Cu9      Cu     0.831600000000     0.192190000000     0.144430000000     0.844974   
Cu10     Cu     0.837130000000     0.144350000000     0.136340000000     0.845026   
Cu11     Cu     0.498120000000     0.525490000000     0.478480000000     0.845037   
Cu12     Cu     0.503580000000     0.477610000000     0.470360000000     0.844902   
Cu13     Cu     0.143900000000     0.308370000000     0.811390000000     0.845027   
Cu14     Cu     0.191750000000     0.361700000000     0.803240000000     0.844819   
Cu15     Cu     0.307710000000     0.144320000000     0.636700000000     0.845073   
Cu16     Cu     0.361070000000     0.192150000000     0.644840000000     0.845043   
Cu17     Cu     0.974400000000     0.477660000000     0.969950000000     0.844931   
Cu18     Cu     0.027730000000     0.525530000000     0.978110000000     0.844845   
Cu19     Cu     0.640710000000     0.810690000000     0.303120000000     0.844931   
Cu20     Cu     0.694040000000     0.858550000000     0.311270000000     0.845103   
Cu21     Cu     0.810300000000     0.641320000000     0.145060000000     0.845189   
Cu22     Cu     0.858130000000     0.694680000000     0.136930000000     0.845061   
Cu23     Cu     0.476850000000     0.974750000000     0.477730000000     0.844918   
Cu24     Cu     0.524720000000     0.028080000000     0.469570000000     0.845174   
Cu25     Cu     0.361060000000     0.170900000000     0.144850000000     0.844979   
Cu26     Cu     0.307710000000     0.165400000000     0.136690000000     0.844898   
Cu27     Cu     0.524800000000     0.498830000000     0.970360000000     0.844916   
Cu28     Cu     0.476920000000     0.504290000000     0.978480000000     0.844934   
Cu29     Cu     0.191740000000     0.831990000000     0.303100000000     0.844934   
Cu30     Cu     0.143870000000     0.837490000000     0.311210000000     0.845249   
Cu31     Cu     0.027730000000     0.504180000000     0.478120000000     0.845054   
Cu32     Cu     0.974410000000     0.498750000000     0.469940000000     0.84484    
Cu33     Cu     0.858070000000     0.165290000000     0.636340000000     0.844965   
Cu34     Cu     0.810230000000     0.170820000000     0.644430000000     0.844927   
Cu35     Cu     0.694040000000     0.837480000000     0.811280000000     0.845012   
Cu36     Cu     0.640700000000     0.832020000000     0.803110000000     0.844879   
H1       H      0.757160000000     0.949330000000     0.790750000000     0.0440776  
H2       H      0.681020000000     0.946960000000     0.787440000000     0.0433115  
H3       H      0.694380000000     0.001440000000     0.723690000000     0.0448867  
H4       H      0.797740000000     0.001350000000     0.723770000000     0.0439178  
H5       H      0.819260000000     0.069560000000     0.714360000000     0.0436343  
H6       H      0.735540000000     0.055890000000     0.659960000000     0.0433015  
H7       H      0.751000000000     0.933160000000     0.733160000000     0.0436153  
H8       H      0.674070000000     0.931320000000     0.729480000000     0.0446941  
H9       H      0.744220000000     0.071530000000     0.717920000000     0.0446647  
H10      H      0.809240000000     0.053390000000     0.656770000000     0.0440966  
H11      H      0.987370000000     0.389230000000     0.493630000000     0.043284   
H12      H      0.911230000000     0.386900000000     0.490300000000     0.0440811  
H13      H      0.870600000000     0.334810000000     0.557160000000     0.0438985  
H14      H      0.973950000000     0.334690000000     0.557260000000     0.0448501  
H15      H      0.924090000000     0.264600000000     0.562880000000     0.0446442  
H16      H      0.859050000000     0.282700000000     0.624050000000     0.0440851  
H17      H      0.994290000000     0.404810000000     0.551620000000     0.0446422  
H18      H      0.917370000000     0.403010000000     0.547930000000     0.0436059  
H19      H      0.849070000000     0.266580000000     0.566420000000     0.043624   
H20      H      0.932760000000     0.280180000000     0.620870000000     0.0432734  
H21      H      0.090910000000     0.616070000000     0.457690000000     0.0440809  
H22      H      0.014770000000     0.613700000000     0.454370000000     0.0433111  
H23      H      0.028120000000     0.668150000000     0.390580000000     0.0449248  
H24      H      0.131490000000     0.668080000000     0.390680000000     0.0438755  
H25      H      0.152990000000     0.736290000000     0.381210000000     0.0436167  
H26      H      0.069250000000     0.722580000000     0.326820000000     0.0433421  
H27      H      0.084750000000     0.599890000000     0.400110000000     0.0436299  
H28      H      0.007810000000     0.598050000000     0.396410000000     0.0446903  
H29      H      0.077940000000     0.738230000000     0.384760000000     0.0447142  
H30      H      0.142970000000     0.720100000000     0.323630000000     0.0440807  
H31      H      0.583750000000     0.736360000000     0.881260000000     0.0436087  
H32      H      0.660720000000     0.738250000000     0.884920000000     0.0446751  
H33      H      0.640450000000     0.668160000000     0.890870000000     0.0449296  
H34      H      0.537050000000     0.668170000000     0.890820000000     0.043882   
H35      H      0.525640000000     0.616200000000     0.957950000000     0.0440424  
H36      H      0.590670000000     0.598080000000     0.896810000000     0.0447226  
H37      H      0.577570000000     0.720130000000     0.823700000000     0.04408    
H38      H      0.653740000000     0.722550000000     0.827000000000     0.0432971  
H39      H      0.599380000000     0.613780000000     0.954730000000     0.0433265  
H40      H      0.515590000000     0.599970000000     0.900390000000     0.0435939  
H41      H      0.266350000000     0.946910000000     0.287550000000     0.0433216  
H42      H      0.192590000000     0.949330000000     0.290760000000     0.0440629  
H43      H      0.204080000000     0.001430000000     0.223880000000     0.0439159  
H44      H      0.307490000000     0.001440000000     0.223940000000     0.0448948  
H45      H      0.327750000000     0.071550000000     0.218310000000     0.0446661  
H46      H      0.244650000000     0.053530000000     0.157020000000     0.0440847  
H47      H      0.257690000000     0.931330000000     0.229560000000     0.0446832  
H48      H      0.182620000000     0.933210000000     0.233130000000     0.0435972  
H49      H      0.250780000000     0.069640000000     0.214650000000     0.043607   
H50      H      0.320840000000     0.055970000000     0.160320000000     0.0433024  
H51      H      0.411020000000     0.404950000000     0.052000000000     0.0447076  
H52      H      0.486100000000     0.403110000000     0.048410000000     0.0436153  
H53      H      0.464670000000     0.334900000000     0.057660000000     0.0439264  
H54      H      0.361240000000     0.334830000000     0.057630000000     0.0449419  
H55      H      0.347920000000     0.280310000000     0.121250000000     0.0433054  
H56      H      0.417990000000     0.266670000000     0.066900000000     0.0436269  
H57      H      0.402350000000     0.389370000000     0.994010000000     0.0432648  
H58      H      0.476130000000     0.386990000000     0.990790000000     0.0440138  
H59      H      0.424120000000     0.282780000000     0.124530000000     0.0440786  
H60      H      0.341010000000     0.264740000000     0.063260000000     0.0446878  
H61      H      0.620730000000     0.772260000000     0.654300000000     0.0415997  
H62      H      0.705720000000     0.806950000000     0.656670000000     0.04434    
H63      H      0.726990000000     0.838840000000     0.559530000000     0.0441404  
H64      H      0.607710000000     0.779260000000     0.554940000000     0.04414    
H65      H      0.628970000000     0.768550000000     0.457880000000     0.0443479  
H66      H      0.710700000000     0.854070000000     0.466860000000     0.0462285  
H67      H      0.624030000000     0.810830000000     0.647520000000     0.0462351  
H68      H      0.712340000000     0.847020000000     0.652850000000     0.0427387  
H69      H      0.713970000000     0.818780000000     0.460230000000     0.0416008  
H70      H      0.622380000000     0.802030000000     0.461550000000     0.0427491  
H71      H      0.705750000000     0.900730000000     0.156610000000     0.0443353  
H72      H      0.620750000000     0.850460000000     0.154250000000     0.0415775  
H73      H      0.607740000000     0.830490000000     0.054890000000     0.0442025  
H74      H      0.727010000000     0.890140000000     0.059470000000     0.0441489  
H75      H      0.713980000000     0.897230000000     0.960160000000     0.0415242  
H76      H      0.622390000000     0.822420000000     0.961500000000     0.0427609  
H77      H      0.712370000000     0.867270000000     0.152790000000     0.042723   
H78      H      0.624060000000     0.815190000000     0.147480000000     0.0462093  
H79      H      0.628990000000     0.862490000000     0.957820000000     0.0443351  
H80      H      0.710730000000     0.858670000000     0.966810000000     0.0461851  
H81      H      0.751040000000     0.819780000000     0.233380000000     0.0436296  
H82      H      0.674110000000     0.744710000000     0.229740000000     0.0447058  
H83      H      0.694430000000     0.694910000000     0.224140000000     0.0449391  
H84      H      0.797780000000     0.798300000000     0.224170000000     0.0439091  
H85      H      0.809310000000     0.757750000000     0.157310000000     0.0440777  
H86      H      0.744280000000     0.674630000000     0.218530000000     0.0446917  
H87      H      0.757170000000     0.809790000000     0.291020000000     0.0441055  
H88      H      0.681030000000     0.736050000000     0.287740000000     0.0433417  
H89      H      0.735600000000     0.681570000000     0.160540000000     0.043333   
H90      H      0.819310000000     0.751590000000     0.214940000000     0.0436008  
H91      H      0.590620000000     0.994670000000     0.396070000000     0.0446643  
H92      H      0.515550000000     0.917740000000     0.399700000000     0.0435945  
H93      H      0.537020000000     0.870990000000     0.390370000000     0.0439138  
H94      H      0.640420000000     0.974350000000     0.390360000000     0.0448764  
H95      H      0.653740000000     0.933200000000     0.326680000000     0.0433139  
H96      H      0.583730000000     0.849470000000     0.381040000000     0.0436154  
H97      H      0.599310000000     0.987710000000     0.454040000000     0.0432999  
H98      H      0.525560000000     0.911570000000     0.457310000000     0.0440646  
H99      H      0.577580000000     0.859490000000     0.323430000000     0.0440893  
H100     H      0.660690000000     0.924510000000     0.384650000000     0.0446953  
H101     H      0.957710000000     0.482170000000     0.814400000000     0.0461827  
H102     H      0.046040000000     0.534230000000     0.819710000000     0.0427271  
H103     H      0.060690000000     0.556940000000     0.726320000000     0.0441928  
H104     H      0.941420000000     0.497360000000     0.721720000000     0.0441212  
H105     H      0.956080000000     0.489130000000     0.628400000000     0.042733   
H106     H      0.047690000000     0.563890000000     0.626960000000     0.0415994  
H107     H      0.954430000000     0.517470000000     0.821030000000     0.0415332  
H108     H      0.039430000000     0.567700000000     0.823370000000     0.0443409  
H109     H      0.044380000000     0.525320000000     0.633740000000     0.0462257  
H110     H      0.962680000000     0.529200000000     0.624580000000     0.044336   
H111     H      0.954460000000     0.439040000000     0.321080000000     0.0415599  
H112     H      0.039460000000     0.473750000000     0.323430000000     0.0443474  
H113     H      0.060720000000     0.505720000000     0.226330000000     0.0441594  
H114     H      0.941440000000     0.446090000000     0.221740000000     0.044131   
H115     H      0.962710000000     0.435460000000     0.124640000000     0.0443537  
H116     H      0.044410000000     0.521000000000     0.133700000000     0.0462192  
H117     H      0.957740000000     0.477600000000     0.314360000000     0.0461982  
H118     H      0.046060000000     0.513820000000     0.319680000000     0.0427555  
H119     H      0.047710000000     0.485730000000     0.127000000000     0.0415856  
H120     H      0.956090000000     0.468920000000     0.128380000000     0.0427409  
H121     H      0.859160000000     0.578260000000     0.124600000000     0.0440941  
H122     H      0.932840000000     0.654440000000     0.121370000000     0.043309   
H123     H      0.973970000000     0.641180000000     0.057560000000     0.0449094  
H124     H      0.870640000000     0.537750000000     0.057520000000     0.0439043  
H125     H      0.917400000000     0.516310000000     0.048010000000     0.0436182  
H126     H      0.987330000000     0.600120000000     0.993730000000     0.0432249  
H127     H      0.849100000000     0.584430000000     0.067030000000     0.0436472  
H128     H      0.924120000000     0.661420000000     0.063430000000     0.0447091  
H129     H      0.994320000000     0.591410000000     0.051660000000     0.0446782  
H130     H      0.911210000000     0.526370000000     0.990450000000     0.0440098  
H131     H      0.379390000000     0.180530000000     0.986400000000     0.0427154  
H132     H      0.291070000000     0.144300000000     0.981090000000     0.0462002  
H133     H      0.274770000000     0.112770000000     0.888490000000     0.0441454  
H134     H      0.394040000000     0.172380000000     0.893060000000     0.0441656  
H135     H      0.377740000000     0.187640000000     0.800420000000     0.0461941  
H136     H      0.296030000000     0.102110000000     0.791410000000     0.0443517  
H137     H      0.372800000000     0.140470000000     0.990190000000     0.0443165  
H138     H      0.287800000000     0.105740000000     0.987840000000     0.0415796  
H139     H      0.289420000000     0.135580000000     0.795120000000     0.0427584  
H140     H      0.381020000000     0.152350000000     0.793740000000     0.0415634  
H141     H      0.291030000000     0.148830000000     0.481140000000     0.0462285  
H142     H      0.379360000000     0.200880000000     0.486430000000     0.0427511  
H143     H      0.394010000000     0.223610000000     0.393060000000     0.04414    
H144     H      0.274730000000     0.164020000000     0.388480000000     0.0441531  
H145     H      0.289390000000     0.155790000000     0.295160000000     0.0427786  
H146     H      0.380990000000     0.230570000000     0.293700000000     0.041584   
H147     H      0.287770000000     0.184130000000     0.487790000000     0.0416008  
H148     H      0.372760000000     0.234350000000     0.490120000000     0.0443348  
H149     H      0.377700000000     0.192000000000     0.300480000000     0.0462128  
H150     H      0.295980000000     0.195850000000     0.291330000000     0.0443762  
H151     H      0.347960000000     0.069610000000     0.621070000000     0.0433088  
H152     H      0.424140000000     0.143290000000     0.624310000000     0.0440783  
H153     H      0.464630000000     0.131830000000     0.557190000000     0.0438904  
H154     H      0.361210000000     0.028490000000     0.557220000000     0.0449131  
H155     H      0.410980000000     0.008150000000     0.551280000000     0.0447099  
H156     H      0.476000000000     0.091270000000     0.490070000000     0.0440673  
H157     H      0.340960000000     0.078340000000     0.563150000000     0.0446873  
H158     H      0.417950000000     0.153370000000     0.566750000000     0.0436162  
H159     H      0.486070000000     0.085080000000     0.547620000000     0.0436121  
H160     H      0.402260000000     0.015150000000     0.493350000000     0.0433246  
H161     H      0.152990000000     0.418670000000     0.881220000000     0.0436054  
H162     H      0.077950000000     0.341710000000     0.884850000000     0.0447027  
H163     H      0.028120000000     0.361980000000     0.890630000000     0.0449349  
H164     H      0.131470000000     0.465380000000     0.890630000000     0.0439039  
H165     H      0.090910000000     0.476810000000     0.957650000000     0.0440781  
H166     H      0.007790000000     0.411770000000     0.896430000000     0.0447073  
H167     H      0.142950000000     0.424830000000     0.823620000000     0.0440668  
H168     H      0.069250000000     0.348670000000     0.826880000000     0.0433316  
H169     H      0.014770000000     0.403070000000     0.954390000000     0.0433209  
H170     H      0.084730000000     0.486840000000     0.900060000000     0.04363    
H171     H      0.257700000000     0.328320000000     0.729790000000     0.0446975  
H172     H      0.182640000000     0.251390000000     0.733430000000     0.0436413  
H173     H      0.204110000000     0.204650000000     0.724110000000     0.0439208  
H174     H      0.307510000000     0.308000000000     0.724070000000     0.0449029  
H175     H      0.320820000000     0.266850000000     0.660390000000     0.0433119  
H176     H      0.250810000000     0.183120000000     0.714760000000     0.0436222  
H177     H      0.266390000000     0.321380000000     0.787760000000     0.0433201  
H178     H      0.192660000000     0.245230000000     0.791040000000     0.0440931  
H179     H      0.244650000000     0.193140000000     0.657160000000     0.0441052  
H180     H      0.327780000000     0.258160000000     0.718360000000     0.0446726  
H181     H      0.434750000000     0.473840000000     0.823790000000     0.0443412  
H182     H      0.485030000000     0.439100000000     0.821530000000     0.0415594  
H183     H      0.505060000000     0.446110000000     0.722200000000     0.0441615  
H184     H      0.445400000000     0.505760000000     0.726660000000     0.0441266  
H185     H      0.438390000000     0.485720000000     0.627350000000     0.0415634  
H186     H      0.513200000000     0.468900000000     0.628810000000     0.0427239  
H187     H      0.468200000000     0.513900000000     0.820020000000     0.0427336  
H188     H      0.520300000000     0.477660000000     0.814790000000     0.0461837  
H189     H      0.473130000000     0.435450000000     0.625090000000     0.0443147  
H190     H      0.476950000000     0.521000000000     0.634040000000     0.0462144  
H191     H      0.563320000000     0.517390000000     0.321520000000     0.0416019  
H192     H      0.528590000000     0.567670000000     0.323800000000     0.0443519  
H193     H      0.496660000000     0.557010000000     0.226670000000     0.0441743  
H194     H      0.556310000000     0.497360000000     0.222190000000     0.044138   
H195     H      0.566960000000     0.529270000000     0.125080000000     0.0443312  
H196     H      0.481410000000     0.525460000000     0.134050000000     0.0462175  
H197     H      0.524760000000     0.482120000000     0.314790000000     0.0462344  
H198     H      0.488520000000     0.534220000000     0.320030000000     0.0427484  
H199     H      0.516680000000     0.564020000000     0.127360000000     0.0415811  
H200     H      0.533500000000     0.489210000000     0.128810000000     0.0427325  
H201     H      0.821990000000     0.200890000000     0.986010000000     0.042732   
H202     H      0.858290000000     0.148830000000     0.980810000000     0.0461856  
H203     H      0.889730000000     0.163980000000     0.888160000000     0.0441604  
H204     H      0.830030000000     0.223590000000     0.892610000000     0.0441194  
H205     H      0.814710000000     0.191940000000     0.800060000000     0.0462008  
H206     H      0.900260000000     0.195770000000     0.790990000000     0.0443653  
H207     H      0.862060000000     0.234360000000     0.989690000000     0.0443225  
H208     H      0.896840000000     0.184130000000     0.987450000000     0.0415348  
H209     H      0.866810000000     0.155710000000     0.794830000000     0.0427695  
H210     H      0.849970000000     0.230500000000     0.793260000000     0.0415822  
H211     H      0.806590000000     0.102120000000     0.290960000000     0.0443759  
H212     H      0.771860000000     0.152410000000     0.293230000000     0.0415673  
H213     H      0.778820000000     0.172390000000     0.392590000000     0.0441572  
H214     H      0.838430000000     0.112700000000     0.388140000000     0.0441739  
H215     H      0.818330000000     0.105630000000     0.487430000000     0.0415661  
H216     H      0.801560000000     0.180480000000     0.486000000000     0.0427095  
H217     H      0.846660000000     0.135570000000     0.294810000000     0.0427649  
H218     H      0.810420000000     0.187670000000     0.300030000000     0.0461947  
H219     H      0.768090000000     0.140410000000     0.489670000000     0.0443085  
H220     H      0.853620000000     0.144180000000     0.480780000000     0.0462016  
H221     H      0.151960000000     0.381670000000     0.654380000000     0.0415381  
H222     H      0.101690000000     0.296660000000     0.656740000000     0.0443696  
H223     H      0.112270000000     0.275400000000     0.559610000000     0.0441553  
H224     H      0.171920000000     0.394670000000     0.555020000000     0.0441683  
H225     H      0.139920000000     0.373410000000     0.457950000000     0.044342   
H226     H      0.143740000000     0.291680000000     0.466940000000     0.0462203  
H227     H      0.187230000000     0.378360000000     0.647600000000     0.0461645  
H228     H      0.135150000000     0.290050000000     0.652930000000     0.0427705  
H229     H      0.105180000000     0.288420000000     0.460300000000     0.0415694  
H230     H      0.179990000000     0.380010000000     0.461630000000     0.0427392  
H231     H      0.233910000000     0.373420000000     0.957990000000     0.0443355  
H232     H      0.183690000000     0.288430000000     0.960330000000     0.0415663  
H233     H      0.163580000000     0.275400000000     0.059630000000     0.0441774  
H234     H      0.223150000000     0.394680000000     0.055050000000     0.0441688  
H235     H      0.230100000000     0.381660000000     0.154420000000     0.0416083  
H236     H      0.155340000000     0.290050000000     0.152960000000     0.0427835  
H237     H      0.200430000000     0.380030000000     0.961670000000     0.0427415  
H238     H      0.148390000000     0.291690000000     0.966960000000     0.0462248  
H239     H      0.195410000000     0.296660000000     0.156770000000     0.0443726  
H240     H      0.191530000000     0.378360000000     0.147630000000     0.0462355  
H241     H      0.069220000000     0.251390000000     0.233320000000     0.0436513  
H242     H      0.071060000000     0.328330000000     0.229630000000     0.0446774  
H243     H      0.000950000000     0.308010000000     0.223810000000     0.0449363  
H244     H      0.001030000000     0.204650000000     0.223900000000     0.0438866  
H245     H      0.949010000000     0.193160000000     0.156870000000     0.0440786  
H246     H      0.930860000000     0.258180000000     0.218010000000     0.0446854  
H247     H      0.053040000000     0.245230000000     0.290900000000     0.0441164  
H248     H      0.055410000000     0.321370000000     0.287580000000     0.0433083  
H249     H      0.946510000000     0.266870000000     0.160060000000     0.0433204  
H250     H      0.932820000000     0.183140000000     0.214460000000     0.0436215  
H251     H      0.404320000000     0.411730000000     0.396800000000     0.0446842  
H252     H      0.402430000000     0.486810000000     0.400380000000     0.0436103  
H253     H      0.334240000000     0.465350000000     0.390860000000     0.0439178  
H254     H      0.334240000000     0.361950000000     0.390910000000     0.0449344  
H255     H      0.279830000000     0.348660000000     0.327070000000     0.0433378  
H256     H      0.266040000000     0.418650000000     0.381350000000     0.043631   
H257     H      0.388650000000     0.403030000000     0.454740000000     0.0433052  
H258     H      0.386220000000     0.476780000000     0.457960000000     0.0440585  
H259     H      0.282260000000     0.424820000000     0.323780000000     0.0441007  
H260     H      0.264150000000     0.341680000000     0.385000000000     0.0447104  
H261     H      0.524910000000     0.044750000000     0.814010000000     0.0462236  
H262     H      0.488670000000     0.956420000000     0.819320000000     0.0427086  
H263     H      0.496720000000     0.941760000000     0.725940000000     0.044114   
H264     H      0.556370000000     0.061030000000     0.721360000000     0.0442051  
H265     H      0.533480000000     0.046390000000     0.628020000000     0.0427536  
H266     H      0.516650000000     0.954770000000     0.626590000000     0.0415683  
H267     H      0.563470000000     0.048010000000     0.820670000000     0.0415803  
H268     H      0.528740000000     0.963020000000     0.823020000000     0.0443044  
H269     H      0.481390000000     0.958080000000     0.633340000000     0.0461867  
H270     H      0.566930000000     0.039770000000     0.624230000000     0.0443767  
H271     H      0.484920000000     0.048030000000     0.320620000000     0.0415806  
H272     H      0.434700000000     0.963040000000     0.322960000000     0.0443167  
H273     H      0.445510000000     0.941780000000     0.225930000000     0.0441278  
H274     H      0.505070000000     0.061050000000     0.221330000000     0.0441988  
H275     H      0.473280000000     0.039780000000     0.124170000000     0.044368   
H276     H      0.477180000000     0.958100000000     0.133380000000     0.0462151  
H277     H      0.520220000000     0.044770000000     0.314030000000     0.0462313  
H278     H      0.468170000000     0.956440000000     0.319340000000     0.0427372  
H279     H      0.438600000000     0.954780000000     0.126550000000     0.0415955  
H280     H      0.513350000000     0.046400000000     0.128030000000     0.0427525  
H281     H      0.737860000000     0.078350000000     0.062770000000     0.0446883  
H282     H      0.735880000000     0.153380000000     0.066320000000     0.0436087  
H283     H      0.667660000000     0.131850000000     0.056930000000     0.043917   
H284     H      0.667770000000     0.028500000000     0.057030000000     0.044917   
H285     H      0.613290000000     0.015120000000     0.993300000000     0.0432694  
H286     H      0.599470000000     0.085100000000     0.047570000000     0.0435898  
H287     H      0.722230000000     0.069660000000     0.120730000000     0.0433102  
H288     H      0.719720000000     0.143370000000     0.123920000000     0.0440692  
H289     H      0.615630000000     0.091250000000     0.989970000000     0.043972   
H290     H      0.597660000000     0.008170000000     0.051260000000     0.0447253  
H291     H      0.183660000000     0.897220000000     0.460080000000     0.0415798  
H292     H      0.233900000000     0.862450000000     0.457820000000     0.0443553  
H293     H      0.223160000000     0.830460000000     0.554920000000     0.0441963  
H294     H      0.163550000000     0.890140000000     0.559380000000     0.0441719  
H295     H      0.195380000000     0.900710000000     0.656530000000     0.0443783  
H296     H      0.191540000000     0.815150000000     0.647490000000     0.0461781  
H297     H      0.148370000000     0.858670000000     0.466750000000     0.0462257  
H298     H      0.200440000000     0.822390000000     0.461530000000     0.0427607  
H299     H      0.230110000000     0.850410000000     0.654260000000     0.0415551  
H300     H      0.155320000000     0.867260000000     0.652720000000     0.0427746  
H301     H      0.187220000000     0.810810000000     0.147510000000     0.0462226  
H302     H      0.135120000000     0.847050000000     0.152750000000     0.0427423  
H303     H      0.112290000000     0.838870000000     0.059410000000     0.0441553  
H304     H      0.171970000000     0.779240000000     0.054940000000     0.0441569  
H305     H      0.180080000000     0.802010000000     0.961540000000     0.0427235  
H306     H      0.105250000000     0.818810000000     0.960110000000     0.0415774  
H307     H      0.151960000000     0.772250000000     0.154280000000     0.0415914  
H308     H      0.101670000000     0.806980000000     0.156550000000     0.0443426  
H309     H      0.143810000000     0.854090000000     0.966770000000     0.0462073  
H310     H      0.140020000000     0.768550000000     0.957840000000     0.0443377  
H311     H      0.402600000000     0.917720000000     0.899730000000     0.0436241  
H312     H      0.404430000000     0.994650000000     0.896050000000     0.0446601  
H313     H      0.334320000000     0.974330000000     0.890330000000     0.044904   
H314     H      0.334400000000     0.870970000000     0.890430000000     0.0439125  
H315     H      0.282310000000     0.859450000000     0.823490000000     0.0440687  
H316     H      0.264230000000     0.924510000000     0.884650000000     0.0446394  
H317     H      0.386460000000     0.911570000000     0.957350000000     0.0440809  
H318     H      0.388820000000     0.987710000000     0.954020000000     0.0432841  
H319     H      0.279840000000     0.933180000000     0.826670000000     0.0432702  
H320     H      0.266170000000     0.849460000000     0.881100000000     0.0436051  
H321     H      0.846560000000     0.713000000000     0.795380000000     0.0427416  
H322     H      0.810340000000     0.624680000000     0.800690000000     0.0462028  
H323     H      0.778790000000     0.608380000000     0.893270000000     0.0441768  
H324     H      0.838390000000     0.727650000000     0.888700000000     0.0441268  
H325     H      0.853630000000     0.711350000000     0.981350000000     0.0461888  
H326     H      0.768110000000     0.629630000000     0.990350000000     0.0443453  
H327     H      0.806500000000     0.706400000000     0.791560000000     0.0443481  
H328     H      0.771780000000     0.621400000000     0.793910000000     0.0415747  
H329     H      0.801580000000     0.623020000000     0.986650000000     0.0427452  
H330     H      0.818330000000     0.714620000000     0.988020000000     0.0415509  
H331     H      0.814800000000     0.624650000000     0.300650000000     0.0462185  
H332     H      0.866860000000     0.712980000000     0.295350000000     0.0427103  
H333     H      0.889630000000     0.727630000000     0.388710000000     0.0441257  
H334     H      0.830020000000     0.608350000000     0.393290000000     0.0441473  
H335     H      0.821830000000     0.623010000000     0.486630000000     0.0427515  
H336     H      0.896630000000     0.714600000000     0.488060000000     0.0415706  
H337     H      0.850090000000     0.621380000000     0.293970000000     0.0415819  
H338     H      0.900330000000     0.706370000000     0.291630000000     0.0442956  
H339     H      0.858060000000     0.711330000000     0.481310000000     0.0461952  
H340     H      0.861900000000     0.629600000000     0.490420000000     0.044345   
H341     H      0.722040000000     0.654470000000     0.621430000000     0.0433399  
H342     H      0.719570000000     0.578270000000     0.624710000000     0.0440679  
H343     H      0.667490000000     0.537730000000     0.557790000000     0.0438843  
H344     H      0.667550000000     0.641160000000     0.557740000000     0.0449173  
H345     H      0.597430000000     0.591390000000     0.552040000000     0.0446562  
H346     H      0.615440000000     0.526290000000     0.490850000000     0.0440518  
H347     H      0.737640000000     0.661390000000     0.563450000000     0.0447135  
H348     H      0.735700000000     0.584410000000     0.567100000000     0.0436179  
H349     H      0.599280000000     0.516290000000     0.548450000000     0.0435781  
H350     H      0.613050000000     0.600060000000     0.494070000000     0.0432976  
H351     H      0.930820000000     0.674650000000     0.718530000000     0.0446321  
H352     H      0.932730000000     0.751620000000     0.714880000000     0.0436063  
H353     H      0.000950000000     0.798320000000     0.724040000000     0.0439192  
H354     H      0.000930000000     0.694910000000     0.724100000000     0.0448836  
H355     H      0.055490000000     0.736070000000     0.787660000000     0.043337   
H356     H      0.069170000000     0.819790000000     0.733230000000     0.0436236  
H357     H      0.946370000000     0.681550000000     0.660530000000     0.0432713  
H358     H      0.948810000000     0.757740000000     0.657240000000     0.0440856  
H359     H      0.053070000000     0.809820000000     0.790870000000     0.0440906  
H360     H      0.071050000000     0.744710000000     0.729660000000     0.0446907  
N1       N      0.784260000000     0.076560000000     0.679980000000    -0.166525   
N2       N      0.709030000000     0.926230000000     0.767490000000    -0.166462   
N3       N      0.884050000000     0.259540000000     0.600810000000    -0.166556   
N4       N      0.959360000000     0.409960000000     0.513610000000    -0.166541   
N5       N      0.117970000000     0.743260000000     0.346820000000    -0.16651    
N6       N      0.042780000000     0.592960000000     0.434420000000    -0.16657    
N7       N      0.550640000000     0.593050000000     0.934770000000    -0.166501   
N8       N      0.625720000000     0.743280000000     0.846920000000    -0.166478   
N9       N      0.292780000000     0.076640000000     0.180320000000    -0.166519   
N10      N      0.217630000000     0.926230000000     0.267510000000    -0.166526   
N11      N      0.375990000000     0.259660000000     0.101230000000    -0.166456   
N12      N      0.451080000000     0.410070000000     0.014040000000    -0.166484   
N13      N      0.669150000000     0.813260000000     0.440400000000    -0.166463   
N14      N      0.665560000000     0.811540000000     0.674050000000    -0.166429   
N15      N      0.669170000000     0.857940000000     0.940350000000    -0.166454   
N16      N      0.665590000000     0.855990000000     0.173990000000    -0.166444   
N17      N      0.784320000000     0.709610000000     0.180570000000    -0.166523   
N18      N      0.709050000000     0.784770000000     0.267710000000    -0.166486   
N19      N      0.625710000000     0.884480000000     0.346690000000    -0.166464   
N20      N      0.550580000000     0.959710000000     0.434050000000    -0.166544   
N21      N      0.002860000000     0.524620000000     0.607200000000    -0.166426   
N22      N      0.999250000000     0.522990000000     0.840850000000    -0.166447   
N23      N      0.002880000000     0.480190000000     0.107210000000    -0.166416   
N24      N      0.999280000000     0.478310000000     0.340860000000    -0.166456   
N25      N      0.959350000000     0.551380000000     0.013670000000    -0.166412   
N26      N      0.884110000000     0.626410000000     0.101390000000    -0.166541   
N27      N      0.336200000000     0.146830000000     0.773950000000    -0.166402   
N28      N      0.332620000000     0.145030000000     0.007590000000    -0.166359   
N29      N      0.336160000000     0.191280000000     0.273950000000    -0.166429   
N30      N      0.332580000000     0.189640000000     0.507590000000    -0.166427   
N31      N      0.451000000000     0.043120000000     0.513290000000    -0.166551   
N32      N      0.375980000000     0.118340000000     0.601120000000    -0.166512   
N33      N      0.042760000000     0.451800000000     0.934410000000    -0.166512   
N34      N      0.117970000000     0.376690000000     0.846880000000    -0.166469   
N35      N      0.292790000000     0.218130000000     0.680400000000    -0.166463   
N36      N      0.217670000000     0.293370000000     0.767760000000    -0.166526   
N37      N      0.477680000000     0.480180000000     0.607600000000    -0.166443   
N38      N      0.479480000000     0.478390000000     0.841250000000    -0.166426   
N39      N      0.522230000000     0.524730000000     0.107600000000    -0.166461   
N40      N      0.524030000000     0.522940000000     0.341250000000    -0.166373   
N41      N      0.855520000000     0.191200000000     0.773570000000    -0.16642    
N42      N      0.857540000000     0.189650000000     0.007210000000    -0.166375   
N43      N      0.812800000000     0.144930000000     0.507190000000    -0.166393   
N44      N      0.811160000000     0.146870000000     0.273550000000    -0.166423   
N45      N      0.144460000000     0.333230000000     0.440480000000    -0.166454   
N46      N      0.146430000000     0.336830000000     0.674130000000    -0.166478   
N47      N      0.190820000000     0.336830000000     0.174160000000    -0.166414   
N48      N      0.189200000000     0.333250000000     0.940520000000    -0.166377   
N49      N      0.925840000000     0.218150000000     0.180070000000    -0.166451   
N50      N      0.076150000000     0.293370000000     0.267640000000    -0.166477   
N51      N      0.259110000000     0.376680000000     0.347010000000    -0.166474   
N52      N      0.409370000000     0.451770000000     0.434760000000    -0.166573   
N53      N      0.522190000000     0.999600000000     0.606830000000    -0.166477   
N54      N      0.524190000000     0.003190000000     0.840480000000    -0.166478   
N55      N      0.477880000000     0.999620000000     0.106820000000    -0.166426   
N56      N      0.479400000000     0.003220000000     0.340460000000    -0.166392   
N57      N      0.592540000000     0.043120000000     0.013260000000    -0.16653    
N58      N      0.742890000000     0.118380000000     0.100710000000    -0.166542   
N59      N      0.190820000000     0.855970000000     0.673970000000    -0.166453   
N60      N      0.189190000000     0.857920000000     0.440320000000    -0.166426   
N61      N      0.144540000000     0.813270000000     0.940340000000    -0.166477   
N62      N      0.146410000000     0.811550000000     0.173990000000    -0.166453   
N63      N      0.259170000000     0.884460000000     0.846720000000    -0.166534   
N64      N      0.409550000000     0.959700000000     0.934050000000    -0.16651    
N65      N      0.812820000000     0.669800000000     0.007810000000    -0.166352   
N66      N      0.811070000000     0.666230000000     0.774170000000    -0.16645    
N67      N      0.857340000000     0.669780000000     0.507820000000    -0.166458   
N68      N      0.855610000000     0.666200000000     0.274180000000    -0.166454   
N69      N      0.592340000000     0.551330000000     0.514080000000    -0.166486   
N70      N      0.742710000000     0.626410000000     0.601430000000    -0.166454   
N71      N      0.076170000000     0.784780000000     0.767600000000    -0.166539   
N72      N      0.925710000000     0.709610000000     0.680550000000    -0.166539   
O1       O      0.882740000000     0.712690000000     0.656470000000    -0.399753   
O2       O      0.790040000000     0.671220000000     0.618360000000    -0.39556    
O3       O      0.824750000000     0.691010000000     0.704400000000    -0.39799    
O4       O      0.849810000000     0.693650000000     0.570530000000    -0.397208   
O5       O      0.843660000000     0.645010000000     0.577600000000    -0.398045   
O6       O      0.818610000000     0.642370000000     0.711470000000    -0.397336   
O7       O      0.785680000000     0.623320000000     0.625520000000    -0.399649   
O8       O      0.878380000000     0.664800000000     0.663640000000    -0.395556   
O9       O      0.119150000000     0.830800000000     0.791650000000    -0.39994    
O10      O      0.211840000000     0.881960000000     0.829770000000    -0.395745   
O11      O      0.177130000000     0.867070000000     0.743720000000    -0.397948   
O12      O      0.152070000000     0.844660000000     0.877600000000    -0.397244   
O13      O      0.158210000000     0.802160000000     0.870590000000    -0.398022   
O14      O      0.183270000000     0.824570000000     0.736700000000    -0.397405   
O15      O      0.216200000000     0.838430000000     0.822650000000    -0.399653   
O16      O      0.123490000000     0.787260000000     0.784540000000    -0.395548   
O17      O      0.456840000000     0.004550000000     0.950980000000    -0.395328   
O18      O      0.549540000000     0.046130000000     0.989130000000    -0.399757   
O19      O      0.516630000000     0.027040000000     0.903180000000    -0.397515   
O20      O      0.491550000000     0.024390000000     0.037040000000    -0.397854   
O21      O      0.485460000000     0.975770000000     0.044130000000    -0.397149   
O22      O      0.510540000000     0.978430000000     0.910260000000    -0.398056   
O23      O      0.545250000000     0.998270000000     0.996320000000    -0.395601   
O24      O      0.452550000000     0.956680000000     0.958180000000    -0.399679   
O25      O      0.123450000000     0.338200000000     0.284620000000    -0.395482   
O26      O      0.216140000000     0.379730000000     0.322830000000    -0.399677   
O27      O      0.183250000000     0.360680000000     0.236850000000    -0.397299   
O28      O      0.158130000000     0.358010000000     0.370700000000    -0.397909   
O29      O      0.152010000000     0.309380000000     0.377780000000    -0.397345   
O30      O      0.177130000000     0.312050000000     0.243930000000    -0.397986   
O31      O      0.211810000000     0.331850000000     0.330010000000    -0.395543   
O32      O      0.119130000000     0.290320000000     0.291800000000    -0.399661   
O33      O      0.785830000000     0.164420000000     0.124830000000    -0.399811   
O34      O      0.878500000000     0.215630000000     0.163050000000    -0.395504   
O35      O      0.843830000000     0.200730000000     0.076960000000    -0.398025   
O36      O      0.818710000000     0.178280000000     0.210820000000    -0.397195   
O37      O      0.824890000000     0.135800000000     0.203810000000    -0.397975   
O38      O      0.850010000000     0.158260000000     0.069950000000    -0.397445   
O39      O      0.882890000000     0.172110000000     0.155940000000    -0.399689   
O40      O      0.790220000000     0.120910000000     0.117720000000    -0.395644   
O41      O      0.545030000000     0.548880000000     0.497090000000    -0.395637   
O42      O      0.452340000000     0.497770000000     0.458890000000    -0.399855   
O43      O      0.485240000000     0.511590000000     0.544870000000    -0.397332   
O44      O      0.510340000000     0.534030000000     0.411010000000    -0.397991   
O45      O      0.516470000000     0.491520000000     0.403980000000    -0.397272   
O46      O      0.491360000000     0.469080000000     0.537840000000    -0.397976   
O47      O      0.456670000000     0.454230000000     0.451760000000    -0.395752   
O48      O      0.549360000000     0.505330000000     0.489960000000    -0.399628   
O49      O      0.120470000000     0.331860000000     0.829940000000    -0.395537   
O50      O      0.171650000000     0.290330000000     0.791850000000    -0.399794   
O51      O      0.157800000000     0.309390000000     0.877790000000    -0.397264   
O52      O      0.135360000000     0.312050000000     0.743910000000    -0.397961   
O53      O      0.177840000000     0.360680000000     0.736840000000    -0.397227   
O54      O      0.200290000000     0.358020000000     0.870730000000    -0.397877   
O55      O      0.215170000000     0.338200000000     0.784690000000    -0.395606   
O56      O      0.164000000000     0.379740000000     0.822780000000    -0.399595   
O57      O      0.289710000000     0.172090000000     0.656280000000    -0.399784   
O58      O      0.331180000000     0.120870000000     0.618110000000    -0.395522   
O59      O      0.311410000000     0.135770000000     0.704180000000    -0.398017   
O60      O      0.308730000000     0.158240000000     0.570320000000    -0.397348   
O61      O      0.357370000000     0.200700000000     0.577360000000    -0.398049   
O62      O      0.360050000000     0.178240000000     0.711230000000    -0.397337   
O63      O      0.379070000000     0.164380000000     0.625260000000    -0.399804   
O64      O      0.337600000000     0.215600000000     0.663430000000    -0.395498   
O65      O      0.997920000000     0.454260000000     0.951370000000    -0.395613   
O66      O      0.956340000000     0.505380000000     0.989530000000    -0.399804   
O67      O      0.975410000000     0.491580000000     0.903570000000    -0.397325   
O68      O      0.978100000000     0.469110000000     0.037430000000    -0.397912   
O69      O      0.026710000000     0.511620000000     0.044500000000    -0.397243   
O70      O      0.024030000000     0.534080000000     0.910630000000    -0.397918   
O71      O      0.004200000000     0.548930000000     0.996700000000    -0.395401   
O72      O      0.045790000000     0.497810000000     0.958540000000    -0.399709   
O73      O      0.664210000000     0.787260000000     0.284600000000    -0.395562   
O74      O      0.622670000000     0.838440000000     0.322630000000    -0.399725   
O75      O      0.641740000000     0.824580000000     0.236710000000    -0.397269   
O76      O      0.644390000000     0.802160000000     0.370620000000    -0.397956   
O77      O      0.693010000000     0.844650000000     0.377670000000    -0.397393   
O78      O      0.690360000000     0.867070000000     0.243780000000    -0.398039   
O79      O      0.670540000000     0.881970000000     0.329790000000    -0.395629   
O80      O      0.712080000000     0.830790000000     0.291760000000    -0.399795   
O81      O      0.786850000000     0.664790000000     0.163630000000    -0.395577   
O82      O      0.838070000000     0.623320000000     0.125500000000    -0.399891   
O83      O      0.824200000000     0.642350000000     0.211460000000    -0.397436   
O84      O      0.801750000000     0.645010000000     0.077580000000    -0.397932   
O85      O      0.844220000000     0.693650000000     0.070540000000    -0.397368   
O86      O      0.866670000000     0.690980000000     0.204410000000    -0.398085   
O87      O      0.881580000000     0.671210000000     0.118360000000    -0.395576   
O88      O      0.830350000000     0.712680000000     0.156490000000    -0.399794   
O89      O      0.453460000000     0.998280000000     0.496310000000    -0.39565    
O90      O      0.504580000000     0.956690000000     0.458170000000    -0.399718   
O91      O      0.490770000000     0.975770000000     0.544120000000    -0.397354   
O92      O      0.468310000000     0.978450000000     0.410250000000    -0.398095   
O93      O      0.510810000000     0.027060000000     0.403180000000    -0.397466   
O94      O      0.533270000000     0.024380000000     0.537050000000    -0.397927   
O95      O      0.548120000000     0.004560000000     0.451000000000    -0.39541    
O96      O      0.497000000000     0.046140000000     0.489140000000    -0.399869   
O97      O      0.337590000000     0.123980000000     0.163410000000    -0.395489   
O98      O      0.379070000000     0.216680000000     0.125310000000    -0.399829   
O99      O      0.360020000000     0.183740000000     0.211250000000    -0.397273   
O100     O      0.357390000000     0.158700000000     0.077370000000    -0.397981   
O101     O      0.308750000000     0.152550000000     0.070300000000    -0.397368   
O102     O      0.311380000000     0.177600000000     0.204180000000    -0.397908   
O103     O      0.331180000000     0.212320000000     0.118140000000    -0.39555    
O104     O      0.289700000000     0.119620000000     0.156240000000    -0.399669   
O105     O      0.548190000000     0.545740000000     0.951770000000    -0.395457   
O106     O      0.497080000000     0.453060000000     0.989950000000    -0.399815   
O107     O      0.510900000000     0.485950000000     0.903980000000    -0.397258   
O108     O      0.533330000000     0.511050000000     0.037850000000    -0.39784    
O109     O      0.490820000000     0.517170000000     0.044870000000    -0.397303   
O110     O      0.468380000000     0.492070000000     0.911000000000    -0.397874   
O111     O      0.453530000000     0.457380000000     0.997070000000    -0.39571    
O112     O      0.504640000000     0.550070000000     0.958900000000    -0.399776   
O113     O      0.215150000000     0.878910000000     0.284490000000    -0.395636   
O114     O      0.163990000000     0.786220000000     0.322690000000    -0.399823   
O115     O      0.177830000000     0.819110000000     0.236710000000    -0.397343   
O116     O      0.200280000000     0.844220000000     0.370580000000    -0.397908   
O117     O      0.157780000000     0.850370000000     0.377590000000    -0.397378   
O118     O      0.135340000000     0.825260000000     0.243740000000    -0.398108   
O119     O      0.120460000000     0.790580000000     0.329820000000    -0.395579   
O120     O      0.171620000000     0.883260000000     0.291610000000    -0.399913   
O121     O      0.045790000000     0.549960000000     0.458560000000    -0.399746   
O122     O      0.004210000000     0.457260000000     0.496690000000    -0.395535   
O123     O      0.024050000000     0.491970000000     0.410640000000    -0.397906   
O124     O      0.026700000000     0.517040000000     0.544510000000    -0.397411   
O125     O      0.978090000000     0.510960000000     0.537420000000    -0.398009   
O126     O      0.975430000000     0.485880000000     0.403550000000    -0.39721    
O127     O      0.956350000000     0.452960000000     0.489510000000    -0.399798   
O128     O      0.997930000000     0.545660000000     0.451360000000    -0.39565    
O129     O      0.881520000000     0.212200000000     0.617770000000    -0.395552   
O130     O      0.830300000000     0.119510000000     0.655900000000    -0.399615   
O131     O      0.844180000000     0.152430000000     0.569940000000    -0.397348   
O132     O      0.866600000000     0.177490000000     0.703820000000    -0.397912   
O133     O      0.824120000000     0.183670000000     0.710830000000    -0.39724    
O134     O      0.801700000000     0.158610000000     0.576950000000    -0.397944   
O135     O      0.786780000000     0.123900000000     0.663010000000    -0.395434   
O136     O      0.838000000000     0.216590000000     0.624880000000    -0.399746   
O137     O      0.670540000000     0.790580000000     0.829910000000    -0.395608   
O138     O      0.712070000000     0.883250000000     0.791660000000    -0.399755   
O139     O      0.693020000000     0.850380000000     0.877660000000    -0.397317   
O140     O      0.690340000000     0.825240000000     0.743820000000    -0.397959   
O141     O      0.641710000000     0.819130000000     0.736730000000    -0.397208   
O142     O      0.644390000000     0.844260000000     0.870580000000    -0.397957   
O143     O      0.664190000000     0.878930000000     0.784480000000    -0.395344   
O144     O      0.622660000000     0.786250000000     0.822730000000    -0.399739   


