data_structure

_audit_creation_method RASPA-1.0
_audit_creation_date 2023-5-23
_audit_author_name 'Poobodin Mano'

_cell_length_a    29.0228
_cell_length_b    28.7866
_cell_length_c    26.4517
_cell_angle_alpha 90.0002
_cell_angle_beta  90.0001
_cell_angle_gamma 89.9978
_cell_volume      22099.5

_symmetry_cell_setting          triclinic
_symmetry_space_group_name_Hall 'P 1'
_symmetry_space_group_name_H-M  'P 1'
_symmetry_Int_Tables_number     1

_symmetry_equiv_pos_as_xyz 'x,y,z'

loop_
_atom_site_label
_atom_site_type_symbol
_atom_site_fract_x
_atom_site_fract_y
_atom_site_fract_z
_atom_site_charge
C1       C      0.990490000000     0.625060000000     0.018200000000     0.472667   
C2       C      0.981250000000     0.451490000000     0.035040000000     0.475295   
C3       C      0.073840000000     0.531780000000     0.023350000000     0.472185   
C4       C      0.900290000000     0.541210000000     0.027870000000     0.472009   
C5       C      0.995590000000     0.574420000000     0.514950000000     0.476552   
C6       C      0.995930000000     0.400540000000     0.533540000000     0.473978   
C7       C      0.080550000000     0.489910000000     0.525890000000     0.470323   
C8       C      0.906600000000     0.487740000000     0.524500000000     0.478738   
C9       C      0.479510000000     0.590230000000     0.039910000000     0.471762   
C10      C      0.487000000000     0.417270000000     0.012780000000     0.468345   
C11      C      0.574000000000     0.508890000000     0.026180000000     0.476034   
C12      C      0.400070000000     0.501060000000     0.026420000000     0.470581   
C13      C      0.502410000000     0.605760000000     0.543080000000     0.463447   
C14      C      0.485070000000     0.433920000000     0.506040000000     0.467112   
C15      C      0.579750000000     0.510660000000     0.524430000000     0.476436   
C16      C      0.405870000000     0.526640000000     0.525310000000     0.476213   
C17      C      0.950320000000     0.948370000000     0.977320000000     0.403231   
C18      C      0.950770000000     0.125680000000     0.030320000000     0.405957   
C19      C      0.960880000000     0.011990000000     0.097650000000     0.409474   
C20      C      0.941640000000     0.063890000000     0.907790000000     0.407606   
C21      C      0.032510000000     0.899180000000     0.508780000000     0.405806   
C22      C      0.034900000000     0.075790000000     0.564640000000     0.403123   
C23      C      0.042950000000     0.959220000000     0.632090000000     0.40765    
C24      C      0.023050000000     0.013990000000     0.443250000000     0.409626   
C25      C      0.439650000000     0.915100000000     0.042790000000     0.403627   
C26      C      0.443780000000     0.092300000000     0.988110000000     0.401997   
C27      C      0.441550000000     0.029100000000     0.110420000000     0.408805   
C28      C      0.442810000000     0.977040000000     0.919460000000     0.408054   
C29      C      0.524210000000     0.932580000000     0.568370000000     0.400339   
C30      C      0.494880000000     0.105940000000     0.505550000000     0.401697   
C31      C      0.530160000000     0.055820000000     0.626200000000     0.407832   
C32      C      0.489750000000     0.985810000000     0.447230000000     0.409589   
C33      C      0.502230000000     0.096420000000     0.701190000000    -0.0256767  
C34      C      0.487290000000     0.951820000000     0.844680000000    -0.0259744  
C35      C      0.418860000000     0.997850000000     0.834110000000    -0.0255141  
C36      C      0.455340000000     0.013640000000     0.799010000000     0.0149975  
C37      C      0.494500000000     0.986620000000     0.804570000000     0.0164255  
C38      C      0.535370000000     0.996610000000     0.778720000000    -0.0653406  
C39      C      0.568380000000     0.047610000000     0.706960000000    -0.0264388  
C40      C      0.455330000000     0.053340000000     0.768740000000    -0.0650557  
C41      C      0.535220000000     0.035990000000     0.747800000000     0.0145385  
C42      C      0.496440000000     0.063960000000     0.743710000000     0.0179501  
C43      C      0.433820000000     0.970490000000     0.377790000000    -0.0234407  
C44      C      0.487610000000     0.041150000000     0.186960000000    -0.0239748  
C45      C      0.405210000000     0.030250000000     0.195840000000    -0.0234028  
C46      C      0.429500000000     0.017020000000     0.243080000000     0.0124726  
C47      C      0.476640000000     0.021830000000     0.236750000000     0.0162117  
C48      C      0.507990000000     0.005050000000     0.272030000000    -0.0682405  
C49      C      0.515690000000     0.970860000000     0.360380000000    -0.0243448  
C50      C      0.411010000000     0.998510000000     0.287750000000    -0.0648073  
C51      C      0.489730000000     0.984880000000     0.315390000000     0.0163768  
C52      C      0.442660000000     0.983290000000     0.324280000000     0.0125174  
C53      C      0.071250000000     0.981830000000     0.714790000000    -0.0267609  
C54      C      0.913680000000     0.040360000000     0.825170000000    -0.0266073  
C55      C      0.978530000000     0.091350000000     0.829570000000    -0.0262436  
C56      C      0.988430000000     0.053270000000     0.793920000000     0.0168811  
C57      C      0.950800000000     0.023680000000     0.791180000000     0.0146887  
C58      C      0.953850000000     0.980570000000     0.767120000000    -0.0647791  
C59      C      0.006350000000     0.930980000000     0.710120000000    -0.0255707  
C60      C      0.031090000000     0.041590000000     0.772850000000    -0.065429   
C61      C      0.996490000000     0.968930000000     0.745960000000     0.0163573  
C62      C      0.034140000000     0.998480000000     0.748800000000     0.0154808  
C63      C      0.971030000000     0.034250000000     0.372730000000    -0.0225695  
C64      C      0.012850000000     0.992760000000     0.168480000000    -0.0220838  
C65      C      0.931910000000     0.007530000000     0.185760000000    -0.0225558  
C66      C      0.959520000000     0.010100000000     0.232640000000     0.0137345  
C67      C      0.005660000000     0.001570000000     0.222670000000     0.0142974  
C68      C      0.039380000000     0.004930000000     0.260160000000    -0.06719    
C69      C      0.051950000000     0.019600000000     0.355260000000    -0.0228678  
C70      C      0.944470000000     0.022470000000     0.280910000000    -0.0665552  
C71      C      0.024330000000     0.017310000000     0.308410000000     0.0145568  
C72      C      0.978190000000     0.025810000000     0.318430000000     0.0137078  
C73      C      0.518470000000     0.181060000000     0.464480000000    -0.0232685  
C74      C      0.452930000000     0.357110000000     0.530810000000    -0.0193664  
C75      C      0.506450000000     0.361170000000     0.460300000000    -0.0187646  
C76      C      0.495760000000     0.311940000000     0.473050000000     0.0122058  
C77      C      0.462950000000     0.310010000000     0.511050000000     0.0136575  
C78      C      0.444920000000     0.267660000000     0.527940000000    -0.0662515  
C79      C      0.451010000000     0.178490000000     0.518730000000    -0.0229191  
C80      C      0.516520000000     0.271260000000     0.454400000000    -0.0649819  
C81      C      0.463350000000     0.227150000000     0.506720000000     0.0140537  
C82      C      0.500040000000     0.228720000000     0.473280000000     0.013287   
C83      C      0.488210000000     0.678100000000     0.593250000000    -0.0190188  
C84      C      0.561840000000     0.857740000000     0.548140000000    -0.0236478  
C85      C      0.498370000000     0.857690000000     0.607840000000    -0.023937   
C86      C      0.510380000000     0.809330000000     0.592760000000     0.0134847  
C87      C      0.544680000000     0.809720000000     0.556390000000     0.0138257  
C88      C      0.556400000000     0.769370000000     0.529530000000    -0.0656989  
C89      C      0.537410000000     0.681730000000     0.519050000000    -0.0195057  
C90      C      0.489870000000     0.767550000000     0.608610000000    -0.0653059  
C91      C      0.534250000000     0.728030000000     0.543650000000     0.0131285  
C92      C      0.503940000000     0.726630000000     0.584070000000     0.0123953  
C93      C      0.482420000000     0.163980000000     0.954460000000    -0.0236026  
C94      C      0.450360000000     0.343170000000     0.037650000000    -0.0187728  
C95      C      0.504610000000     0.342700000000     0.967650000000    -0.0187203  
C96      C      0.485340000000     0.295400000000     0.976220000000     0.0132264  
C97      C      0.452010000000     0.296730000000     0.013700000000     0.0128371  
C98      C      0.425290000000     0.257720000000     0.025460000000    -0.0659725  
C99      C      0.413410000000     0.170580000000     0.005890000000    -0.0243181  
C100     C      0.498280000000     0.253180000000     0.953610000000    -0.0657645  
C101     C      0.435870000000     0.216420000000     0.000050000000     0.0137928  
C102     C      0.473350000000     0.213390000000     0.967800000000     0.0140001  
C103     C      0.406090000000     0.836990000000     0.030910000000    -0.0238866  
C104     C      0.493250000000     0.665940000000     0.083740000000    -0.0181808  
C105     C      0.438940000000     0.662000000000     0.013860000000    -0.0195833  
C106     C      0.440550000000     0.709500000000     0.035070000000     0.0141856  
C107     C      0.473810000000     0.712600000000     0.072540000000     0.0122065  
C108     C      0.487620000000     0.755850000000     0.091760000000    -0.0652091  
C109     C      0.474640000000     0.844800000000     0.082960000000    -0.0230306  
C110     C      0.414990000000     0.748250000000     0.019730000000    -0.0674175  
C111     C      0.463670000000     0.795050000000     0.074290000000     0.0132018  
C112     C      0.426420000000     0.790880000000     0.041820000000     0.0149739  
C113     C      0.449480000000     0.501720000000     0.676580000000    -0.02867    
C114     C      0.528130000000     0.515760000000     0.873930000000    -0.0286421  
C115     C      0.446660000000     0.507060000000     0.872790000000    -0.0278929  
C116     C      0.464780000000     0.505540000000     0.820280000000     0.0146433  
C117     C      0.511970000000     0.510540000000     0.820930000000     0.0150474  
C118     C      0.537610000000     0.513290000000     0.775920000000    -0.0681671  
C119     C      0.530970000000     0.510090000000     0.677610000000    -0.0292224  
C120     C      0.440160000000     0.502990000000     0.774590000000    -0.0679754  
C121     C      0.513000000000     0.510620000000     0.730220000000     0.0151474  
C122     C      0.465830000000     0.505620000000     0.729600000000     0.014727   
C123     C      0.529860000000     0.499530000000     0.177810000000    -0.0319958  
C124     C      0.452710000000     0.530710000000     0.373630000000    -0.032749   
C125     C      0.534490000000     0.528440000000     0.371650000000    -0.0318493  
C126     C      0.515990000000     0.520770000000     0.319960000000     0.0156579  
C127     C      0.468660000000     0.522110000000     0.321080000000     0.0159897  
C128     C      0.442340000000     0.517130000000     0.276740000000    -0.0686298  
C129     C      0.448090000000     0.502170000000     0.179620000000    -0.0309011  
C130     C      0.540210000000     0.514230000000     0.274450000000    -0.0688802  
C131     C      0.466560000000     0.510740000000     0.231190000000     0.0154092  
C132     C      0.513910000000     0.509280000000     0.230110000000     0.0158593  
C133     C      0.999120000000     0.148870000000     0.598430000000    -0.023702   
C134     C      0.029000000000     0.325130000000     0.506320000000    -0.0186713  
C135     C      0.977660000000     0.326760000000     0.578920000000    -0.0180601  
C136     C      0.995690000000     0.279120000000     0.570530000000     0.0120457  
C137     C      0.027340000000     0.279050000000     0.531310000000     0.0137677  
C138     C      0.053200000000     0.239410000000     0.519740000000    -0.0662037  
C139     C      0.065330000000     0.152950000000     0.542470000000    -0.0232647  
C140     C      0.983620000000     0.237950000000     0.595740000000    -0.0658029  
C141     C      0.043420000000     0.199100000000     0.547400000000     0.0141335  
C142     C      0.007590000000     0.197550000000     0.581940000000     0.0136272  
C143     C      0.034030000000     0.647050000000     0.540890000000    -0.0177253  
C144     C      0.994610000000     0.828890000000     0.471930000000    -0.0232909  
C145     C      0.066430000000     0.821340000000     0.518470000000    -0.0227767  
C146     C      0.045220000000     0.775330000000     0.510040000000     0.0143104  
C147     C      0.006080000000     0.779250000000     0.480290000000     0.0140518  
C148     C      0.981280000000     0.739910000000     0.464870000000    -0.0659798  
C149     C      0.976840000000     0.650120000000     0.473730000000    -0.0182288  
C150     C      0.057710000000     0.733060000000     0.532170000000    -0.066368   
C151     C      0.996180000000     0.696950000000     0.483750000000     0.0127193  
C152     C      0.031200000000     0.694290000000     0.519300000000     0.0133377  
C153     C      0.831310000000     0.485290000000     0.479270000000    -0.0172047  
C154     C      0.654170000000     0.503490000000     0.571290000000    -0.0176523  
C155     C      0.654350000000     0.501570000000     0.479390000000    -0.017043   
C156     C      0.701800000000     0.497060000000     0.499250000000     0.0118078  
C157     C      0.701900000000     0.499040000000     0.551620000000     0.012217   
C158     C      0.743140000000     0.497910000000     0.579150000000    -0.0653887  
C159     C      0.832000000000     0.493250000000     0.570780000000    -0.0176068  
C160     C      0.742650000000     0.492130000000     0.471560000000    -0.065366   
C161     C      0.784090000000     0.493690000000     0.551390000000     0.0123586  
C162     C      0.783770000000     0.490040000000     0.499130000000     0.0119217  
C163     C      0.155840000000     0.494200000000     0.571000000000    -0.0177105  
C164     C      0.330690000000     0.528870000000     0.478890000000    -0.0180096  
C165     C      0.331110000000     0.522780000000     0.570540000000    -0.0173047  
C166     C      0.283720000000     0.517760000000     0.550820000000     0.0119511  
C167     C      0.283270000000     0.521200000000     0.498560000000     0.0117331  
C168     C      0.242270000000     0.516030000000     0.471030000000    -0.0652358  
C169     C      0.154490000000     0.500560000000     0.479370000000    -0.0178928  
C170     C      0.243540000000     0.508850000000     0.578500000000    -0.0657843  
C171     C      0.201960000000     0.507290000000     0.498780000000     0.0114667  
C172     C      0.202640000000     0.503740000000     0.551040000000     0.0121041  
C173     C      0.942340000000     0.379260000000     0.007810000000    -0.0186642  
C174     C      0.987720000000     0.196090000000     0.067880000000    -0.0229533  
C175     C      0.915610000000     0.203220000000     0.021730000000    -0.0235454  
C176     C      0.935500000000     0.249490000000     0.032140000000     0.014825   
C177     C      0.974840000000     0.245620000000     0.061590000000     0.0134096  
C178     C      0.998460000000     0.285040000000     0.078810000000    -0.0657859  
C179     C      0.000210000000     0.375120000000     0.074220000000    -0.0174996  
C180     C      0.921510000000     0.292210000000     0.012250000000    -0.0676345  
C181     C      0.982130000000     0.328220000000     0.062110000000     0.012216   
C182     C      0.946800000000     0.331260000000     0.026970000000     0.0136942  
C183     C      0.011730000000     0.698270000000     0.973180000000    -0.0177281  
C184     C      0.920400000000     0.871450000000     0.001030000000    -0.0254804  
C185     C      0.987500000000     0.874970000000     0.946320000000    -0.0231618  
C186     C      0.979700000000     0.826740000000     0.964630000000     0.0124642  
C187     C      0.943260000000     0.825620000000     0.998410000000     0.0161569  
C188     C      0.933710000000     0.786070000000     0.027420000000    -0.0674441  
C189     C      0.958850000000     0.701190000000     0.044370000000    -0.0189136  
C190     C      0.004720000000     0.786400000000     0.953020000000    -0.0648222  
C191     C      0.960560000000     0.746610000000     0.018040000000     0.0136254  
C192     C      0.993000000000     0.745880000000     0.979620000000     0.0121515  
C193     C      0.825920000000     0.530890000000     0.073660000000    -0.0181176  
C194     C      0.648000000000     0.525020000000     0.981650000000    -0.0160961  
C195     C      0.649390000000     0.506980000000     0.071430000000    -0.0177238  
C196     C      0.696500000000     0.517470000000     0.052800000000     0.0125073  
C197     C      0.695720000000     0.527440000000     0.001540000000     0.0100773  
C198     C      0.736170000000     0.537890000000     0.974910000000    -0.0632021  
C199     C      0.824700000000     0.546810000000     0.983430000000    -0.0165591  
C200     C      0.737710000000     0.517990000000     0.080450000000    -0.0660028  
C201     C      0.777400000000     0.538200000000     0.002510000000     0.0102621  
C202     C      0.778120000000     0.528820000000     0.053900000000     0.0124258  
C203     C      0.148910000000     0.531710000000     0.068780000000    -0.0171943  
C204     C      0.325020000000     0.496690000000     0.980760000000    -0.0175629  
C205     C      0.325260000000     0.509140000000     0.071670000000    -0.0175338  
C206     C      0.277670000000     0.511410000000     0.051470000000     0.0109921  
C207     C      0.277450000000     0.503960000000     0.999690000000     0.0126364  
C208     C      0.236420000000     0.504880000000     0.971730000000    -0.065928   
C209     C      0.148000000000     0.516810000000     0.978310000000    -0.0176176  
C210     C      0.237020000000     0.520900000000     0.078070000000    -0.0649961  
C211     C      0.195670000000     0.513930000000     0.998430000000     0.012889   
C212     C      0.196060000000     0.522070000000     0.050090000000     0.0109055  
C213     C      0.987040000000     0.482600000000     0.878400000000    -0.0284296  
C214     C      0.011310000000     0.540320000000     0.673910000000    -0.0246393  
C215     C      0.993590000000     0.460160000000     0.684110000000    -0.0249301  
C216     C      0.002820000000     0.481430000000     0.734490000000     0.0138301  
C217     C      0.013150000000     0.527870000000     0.728590000000     0.0129859  
C218     C      0.016520000000     0.557790000000     0.770590000000    -0.0665132  
C219     C      0.005020000000     0.562540000000     0.868390000000    -0.0268489  
C220     C      0.995190000000     0.462180000000     0.782720000000    -0.0672459  
C221     C      0.010050000000     0.538250000000     0.818900000000     0.0136326  
C222     C      0.999660000000     0.491870000000     0.824750000000     0.0143929  
C223     C      0.952420000000     0.489810000000     0.371420000000    -0.0318781  
C224     C      0.031110000000     0.534610000000     0.178850000000    -0.0298985  
C225     C      0.949340000000     0.531900000000     0.180000000000    -0.0315602  
C226     C      0.967510000000     0.520300000000     0.231080000000     0.0156134  
C227     C      0.014850000000     0.521960000000     0.230530000000     0.0145126  
C228     C      0.040770000000     0.514300000000     0.274830000000    -0.0675521  
C229     C      0.034170000000     0.493460000000     0.370960000000    -0.029745   
C230     C      0.942960000000     0.510570000000     0.275770000000    -0.0686672  
C231     C      0.016190000000     0.504680000000     0.319610000000     0.014455   
C232     C      0.968860000000     0.502750000000     0.319990000000     0.0156876  
Cu1      Cu     0.988130000000     0.541380000000     0.080020000000     1.19239    
Cu2      Cu     0.986040000000     0.534740000000     0.972420000000     1.19909    
Cu3      Cu     0.993630000000     0.491630000000     0.578440000000     1.20956    
Cu4      Cu     0.993420000000     0.483800000000     0.470620000000     1.19241    
Cu5      Cu     0.487450000000     0.498640000000     0.079650000000     1.18655    
Cu6      Cu     0.486580000000     0.509410000000     0.973200000000     1.19348    
Cu7      Cu     0.490600000000     0.511980000000     0.577550000000     1.19654    
Cu8      Cu     0.495320000000     0.527630000000     0.471570000000     1.18031    
Cu9      Cu     0.992920000000     0.038480000000     0.998230000000     0.855903   
Cu10     Cu     0.908440000000     0.036370000000     0.007270000000     0.847918   
Cu11     Cu     0.075770000000     0.987870000000     0.532840000000     0.85075    
Cu12     Cu     0.991330000000     0.986350000000     0.542450000000     0.853217   
Cu13     Cu     0.484050000000     0.002530000000     0.015320000000     0.854816   
Cu14     Cu     0.399250000000     0.004410000000     0.014400000000     0.842326   
Cu15     Cu     0.550950000000     0.022590000000     0.524790000000     0.848537   
Cu16     Cu     0.468970000000     0.016420000000     0.549860000000     0.851791   
H1       H      0.393100000000     0.976830000000     0.813080000000     0.0420462  
H2       H      0.481300000000     0.917310000000     0.827060000000     0.0401202  
H3       H      0.565360000000     0.974430000000     0.781790000000     0.0447626  
H4       H      0.424690000000     0.074360000000     0.764090000000     0.0447375  
H5       H      0.469740000000     0.101960000000     0.679660000000     0.0472996  
H6       H      0.596190000000     0.069950000000     0.722540000000     0.0416145  
H7       H      0.401380000000     0.027770000000     0.852640000000     0.0463302  
H8       H      0.517640000000     0.949320000000     0.870150000000     0.0500211  
H9       H      0.583690000000     0.015870000000     0.689680000000     0.0441932  
H10      H      0.514180000000     0.130430000000     0.716150000000     0.0390041  
H11      H      0.384950000000     0.062530000000     0.201760000000     0.041118   
H12      H      0.498770000000     0.077900000000     0.190790000000     0.0420514  
H13      H      0.544810000000     0.008050000000     0.266300000000     0.0442243  
H14      H      0.374200000000     0.996500000000     0.293930000000     0.0441936  
H15      H      0.410230000000     0.995700000000     0.396360000000     0.0465116  
H16      H      0.529640000000     0.935250000000     0.355120000000     0.0408132  
H17      H      0.381790000000     0.002100000000     0.182850000000     0.0466964  
H18      H      0.515510000000     0.020830000000     0.168420000000     0.0477188  
H19      H      0.544670000000     0.995240000000     0.367770000000     0.0485703  
H20      H      0.418650000000     0.935120000000     0.379930000000     0.0416896  
H21      H      0.968170000000     0.122650000000     0.807750000000     0.0390451  
H22      H      0.887250000000     0.059030000000     0.802560000000     0.0415405  
H23      H      0.924590000000     0.957340000000     0.764910000000     0.0447821  
H24      H      0.060340000000     0.064830000000     0.775040000000     0.044774   
H25      H      0.087860000000     0.011080000000     0.694120000000     0.0463829  
H26      H      0.016760000000     0.899610000000     0.731790000000     0.0389751  
H27      H      0.008890000000     0.100280000000     0.853280000000     0.0495469  
H28      H      0.897240000000     0.011150000000     0.846070000000     0.0465266  
H29      H      0.975970000000     0.922120000000     0.686400000000     0.0491855  
H30      H      0.097550000000     0.962920000000     0.737340000000     0.0414712  
H31      H      0.911680000000     0.039870000000     0.179680000000     0.0452699  
H32      H      0.039350000000     0.016610000000     0.152670000000     0.0464944  
H33      H      0.075360000000     0.998240000000     0.252210000000     0.0444693  
H34      H      0.908470000000     0.029060000000     0.288880000000     0.0440754  
H35      H      0.960110000000     0.070730000000     0.379440000000     0.0422229  
H36      H      0.072320000000     0.987300000000     0.361000000000     0.0457389  
H37      H      0.908020000000     0.977400000000     0.186960000000     0.0417572  
H38      H      0.023910000000     0.956280000000     0.162060000000     0.042265   
H39      H      0.075720000000     0.049840000000     0.354310000000     0.0417958  
H40      H      0.944460000000     0.010400000000     0.388360000000     0.0465866  
H41      H      0.494370000000     0.369810000000     0.421570000000     0.0434826  
H42      H      0.415660000000     0.365490000000     0.527690000000     0.0395184  
H43      H      0.418550000000     0.266260000000     0.556840000000     0.0438875  
H44      H      0.544500000000     0.272660000000     0.427390000000     0.0441147  
H45      H      0.517160000000     0.171780000000     0.423750000000     0.0411304  
H46      H      0.450190000000     0.172400000000     0.560250000000     0.0423324  
H47      H      0.544010000000     0.368420000000     0.462790000000     0.0401081  
H48      H      0.463420000000     0.360240000000     0.571090000000     0.0458153  
H49      H      0.416750000000     0.169620000000     0.502670000000     0.0443489  
H50      H      0.554670000000     0.178060000000     0.477800000000     0.0463906  
H51      H      0.504040000000     0.863030000000     0.648960000000     0.0406574  
H52      H      0.597660000000     0.861300000000     0.562440000000     0.0439142  
H53      H      0.580860000000     0.770250000000     0.498660000000     0.0441339  
H54      H      0.463770000000     0.767020000000     0.637830000000     0.0440909  
H55      H      0.500960000000     0.665100000000     0.630250000000     0.043684   
H56      H      0.523710000000     0.682950000000     0.479840000000     0.0450812  
H57      H      0.461770000000     0.865610000000     0.598960000000     0.0473298  
H58      H      0.561230000000     0.867240000000     0.507380000000     0.0435808  
H59      H      0.573590000000     0.669120000000     0.517770000000     0.0403273  
H60      H      0.450010000000     0.675450000000     0.592700000000     0.0404384  
H61      H      0.495490000000     0.355780000000     0.929410000000     0.0442323  
H62      H      0.415020000000     0.358060000000     0.036500000000     0.0404363  
H63      H      0.398130000000     0.259260000000     0.053450000000     0.0443006  
H64      H      0.526550000000     0.251300000000     0.927010000000     0.0441572  
H65      H      0.481060000000     0.158650000000     0.912900000000     0.0404584  
H66      H      0.409140000000     0.161160000000     0.046410000000     0.0435431  
H67      H      0.542710000000     0.343050000000     0.971710000000     0.0391293  
H68      H      0.461860000000     0.341380000000     0.077680000000     0.045103   
H69      H      0.379030000000     0.170520000000     0.987420000000     0.0449184  
H70      H      0.516730000000     0.152620000000     0.968470000000     0.0469087  
H71      H      0.449800000000     0.661840000000     0.973560000000     0.0461029  
H72      H      0.531410000000     0.665570000000     0.080270000000     0.038976   
H73      H      0.516120000000     0.758920000000     0.117940000000     0.0438894  
H74      H      0.388380000000     0.745550000000     0.991200000000     0.0451138  
H75      H      0.402850000000     0.843190000000     0.989550000000     0.0436017  
H76      H      0.472800000000     0.853600000000     0.123800000000     0.0408929  
H77      H      0.403770000000     0.646920000000     0.016610000000     0.0403644  
H78      H      0.483650000000     0.654410000000     0.122430000000     0.0437052  
H79      H      0.509640000000     0.853470000000     0.068750000000     0.0464442  
H80      H      0.371510000000     0.840180000000     0.048590000000     0.0447445  
H81      H      0.435930000000     0.471730000000     0.884890000000     0.037118   
H82      H      0.545720000000     0.483480000000     0.886460000000     0.0368573  
H83      H      0.574680000000     0.517450000000     0.776420000000     0.0438426  
H84      H      0.403050000000     0.499330000000     0.774060000000     0.0435576  
H85      H      0.425600000000     0.471890000000     0.671930000000     0.0391915  
H86      H      0.542120000000     0.545540000000     0.666380000000     0.0359536  
H87      H      0.417060000000     0.531330000000     0.875930000000     0.038841   
H88      H      0.551920000000     0.545750000000     0.877770000000     0.0397577  
H89      H      0.560320000000     0.485600000000     0.673840000000     0.0394272  
H90      H      0.431870000000     0.534380000000     0.665350000000     0.0398804  
H91      H      0.561760000000     0.555490000000     0.371590000000     0.0401036  
H92      H      0.426970000000     0.559220000000     0.374840000000     0.0398855  
H93      H      0.405070000000     0.518030000000     0.277660000000     0.0439369  
H94      H      0.577470000000     0.512910000000     0.273610000000     0.0437473  
H95      H      0.545230000000     0.531400000000     0.161210000000     0.0384096  
H96      H      0.420540000000     0.475420000000     0.180240000000     0.0395789  
H97      H      0.548810000000     0.495390000000     0.386520000000     0.0418873  
H98      H      0.437250000000     0.498490000000     0.389320000000     0.0373384  
H99      H      0.434230000000     0.535020000000     0.163690000000     0.0383648  
H100     H      0.555640000000     0.471040000000     0.177320000000     0.0402431  
H101     H      0.988120000000     0.340150000000     0.616630000000     0.0429813  
H102     H      0.064670000000     0.339170000000     0.505170000000     0.0401769  
H103     H      0.079250000000     0.239770000000     0.490450000000     0.0443505  
H104     H      0.956820000000     0.237330000000     0.624180000000     0.0436741  
H105     H      0.002930000000     0.145360000000     0.640050000000     0.0402878  
H106     H      0.067600000000     0.141970000000     0.502210000000     0.0438749  
H107     H      0.939460000000     0.327740000000     0.576230000000     0.0390397  
H108     H      0.015500000000     0.323040000000     0.467080000000     0.0446094  
H109     H      0.100560000000     0.153410000000     0.558900000000     0.0441051  
H110     H      0.964010000000     0.137160000000     0.587480000000     0.0467161  
H111     H      0.099690000000     0.824060000000     0.497880000000     0.0448658  
H112     H      0.993710000000     0.837300000000     0.430960000000     0.0406294  
H113     H      0.951490000000     0.742670000000     0.440430000000     0.0440609  
H114     H      0.085910000000     0.730670000000     0.558830000000     0.0440043  
H115     H      0.069260000000     0.632290000000     0.536950000000     0.0389725  
H116     H      0.938910000000     0.649320000000     0.479390000000     0.0384894  
H117     H      0.072560000000     0.828070000000     0.559340000000     0.0426685  
H118     H      0.960690000000     0.837810000000     0.488880000000     0.0465151  
H119     H      0.984730000000     0.638640000000     0.434550000000     0.0440414  
H120     H      0.024420000000     0.647140000000     0.581570000000     0.0423866  
H121     H      0.644380000000     0.470600000000     0.456800000000     0.0405849  
H122     H      0.644620000000     0.473020000000     0.594880000000     0.0406672  
H123     H      0.743390000000     0.500490000000     0.619980000000     0.0433435  
H124     H      0.742450000000     0.490320000000     0.430680000000     0.0424311  
H125     H      0.836090000000     0.451370000000     0.459910000000     0.0415139  
H126     H      0.840280000000     0.526110000000     0.590890000000     0.0438406  
H127     H      0.650810000000     0.533000000000     0.455270000000     0.0416927  
H128     H      0.649970000000     0.535550000000     0.594240000000     0.0396067  
H129     H      0.837700000000     0.463660000000     0.597040000000     0.0414134  
H130     H      0.839750000000     0.513630000000     0.452260000000     0.0394101  
H131     H      0.341590000000     0.491660000000     0.592630000000     0.0422371  
H132     H      0.341030000000     0.501000000000     0.452100000000     0.0400301  
H133     H      0.241790000000     0.518400000000     0.430200000000     0.042496   
H134     H      0.244140000000     0.505770000000     0.619280000000     0.042679   
H135     H      0.154640000000     0.460290000000     0.591040000000     0.0413626  
H136     H      0.142410000000     0.531640000000     0.458220000000     0.0411421  
H137     H      0.334100000000     0.553920000000     0.595170000000     0.0405684  
H138     H      0.333450000000     0.562930000000     0.459390000000     0.0394623  
H139     H      0.152500000000     0.469850000000     0.454010000000     0.0398566  
H140     H      0.144460000000     0.521940000000     0.597440000000     0.0407975  
H141     H      0.909920000000     0.197670000000     0.980590000000     0.0430523  
H142     H      0.021700000000     0.188680000000     0.050250000000     0.0462436  
H143     H      0.028410000000     0.282230000000     0.103000000000     0.044102   
H144     H      0.893080000000     0.294800000000     0.985910000000     0.0447335  
H145     H      0.951370000000     0.381190000000     0.967020000000     0.0428611  
H146     H      0.992180000000     0.384800000000     0.113930000000     0.0437377  
H147     H      0.882320000000     0.198840000000     0.041910000000     0.0450169  
H148     H      0.989180000000     0.186290000000     0.108470000000     0.0406964  
H149     H      0.038080000000     0.377250000000     0.068420000000     0.038432   
H150     H      0.906790000000     0.392820000000     0.013060000000     0.0392764  
H151     H      0.984200000000     0.876970000000     0.904540000000     0.0401444  
H152     H      0.885550000000     0.869750000000     0.983760000000     0.0449512  
H153     H      0.907030000000     0.786110000000     0.056010000000     0.0446126  
H154     H      0.031980000000     0.786600000000     0.925100000000     0.0434427  
H155     H      0.002630000000     0.683960000000     0.935440000000     0.0436264  
H156     H      0.971900000000     0.704410000000     0.083700000000     0.0441785  
H157     H      0.022240000000     0.887700000000     0.957340000000     0.0468435  
H158     H      0.917070000000     0.883630000000     0.040790000000     0.0443109  
H159     H      0.923230000000     0.686990000000     0.045470000000     0.0408432  
H160     H      0.049810000000     0.697830000000     0.977350000000     0.0388632  
H161     H      0.638860000000     0.531520000000     0.101750000000     0.0397667  
H162     H      0.636950000000     0.559000000000     0.965810000000     0.0415179  
H163     H      0.735610000000     0.545220000000     0.934780000000     0.0428313  
H164     H      0.738320000000     0.510210000000     0.120480000000     0.0425872  
H165     H      0.829620000000     0.558850000000     0.102340000000     0.0399188  
H166     H      0.834230000000     0.521430000000     0.953530000000     0.0429238  
H167     H      0.647170000000     0.470970000000     0.086350000000     0.0409536  
H168     H      0.644860000000     0.498140000000     0.951680000000     0.0394513  
H169     H      0.827990000000     0.582490000000     0.967790000000     0.0419573  
H170     H      0.836270000000     0.497320000000     0.091070000000     0.0412294  
H171     H      0.329040000000     0.480140000000     0.099100000000     0.0398544  
H172     H      0.328910000000     0.461710000000     0.963510000000     0.0404631  
H173     H      0.236240000000     0.499090000000     0.931290000000     0.0429641  
H174     H      0.237270000000     0.527290000000     0.118400000000     0.0423823  
H175     H      0.138310000000     0.506040000000     0.097940000000     0.0397157  
H176     H      0.144880000000     0.544620000000     0.949370000000     0.0405682  
H177     H      0.335070000000     0.542130000000     0.090690000000     0.0412303  
H178     H      0.334510000000     0.523340000000     0.952190000000     0.0409328  
H179     H      0.137140000000     0.483310000000     0.961170000000     0.0420414  
H180     H      0.146510000000     0.567150000000     0.085270000000     0.0412255  
H181     H      0.961260000000     0.439530000000     0.684490000000     0.0376428  
H182     H      0.990550000000     0.572210000000     0.667660000000     0.038487   
H183     H      0.021700000000     0.594770000000     0.765770000000     0.0435499  
H184     H      0.984160000000     0.426490000000     0.787140000000     0.0438241  
H185     H      0.954700000000     0.462140000000     0.881060000000     0.0390645  
H186     H      0.039530000000     0.570850000000     0.884140000000     0.0360688  
H187     H      0.022910000000     0.437650000000     0.672790000000     0.0353812  
H188     H      0.046710000000     0.545530000000     0.658990000000     0.0352516  
H189     H      0.984570000000     0.594930000000     0.864430000000     0.0384287  
H190     H      0.015420000000     0.463600000000     0.897560000000     0.0364671  
H191     H      0.921880000000     0.558670000000     0.182320000000     0.039409   
H192     H      0.056810000000     0.563150000000     0.180400000000     0.0386852  
H193     H      0.078030000000     0.515750000000     0.274490000000     0.0434951  
H194     H      0.905700000000     0.509150000000     0.276120000000     0.0438023  
H195     H      0.936220000000     0.520390000000     0.389860000000     0.0385438  
H196     H      0.061950000000     0.467010000000     0.368980000000     0.0385886  
H197     H      0.935350000000     0.500090000000     0.161870000000     0.0385305  
H198     H      0.046720000000     0.503790000000     0.160280000000     0.0374959  
H199     H      0.047630000000     0.525480000000     0.389130000000     0.0373915  
H200     H      0.927130000000     0.460930000000     0.369570000000     0.0399631  
N1       N      0.539560000000     0.074590000000     0.672070000000    -0.165541   
N2       N      0.444660000000     0.968100000000     0.869150000000    -0.166137   
N3       N      0.480290000000     0.970690000000     0.399850000000    -0.167574   
N4       N      0.443350000000     0.038750000000     0.160480000000    -0.167672   
N5       N      0.046310000000     0.949140000000     0.682100000000    -0.16577    
N6       N      0.938520000000     0.073330000000     0.857610000000    -0.165677   
N7       N      0.016810000000     0.025940000000     0.394320000000    -0.168512   
N8       N      0.967060000000     0.000780000000     0.146790000000    -0.168835   
N9       N      0.487380000000     0.151370000000     0.494060000000    -0.165749   
N10      N      0.480490000000     0.387510000000     0.498290000000    -0.178828   
N11      N      0.508850000000     0.651970000000     0.551350000000    -0.17784    
N12      N      0.530220000000     0.886500000000     0.578080000000    -0.165033   
N13      N      0.444860000000     0.138840000000     0.979690000000    -0.16557    
N14      N      0.482560000000     0.370620000000     0.007240000000    -0.179074   
N15      N      0.438640000000     0.869240000000     0.054500000000    -0.16638    
N16      N      0.471700000000     0.636360000000     0.045390000000    -0.179877   
N17      N      0.491660000000     0.494920000000     0.646630000000    -0.227263   
N18      N      0.485790000000     0.523280000000     0.903360000000    -0.227487   
N19      N      0.487980000000     0.486090000000     0.149990000000    -0.225144   
N20      N      0.494570000000     0.543440000000     0.401940000000    -0.224198   
N21      N      0.035050000000     0.122480000000     0.571970000000    -0.166176   
N22      N      0.998910000000     0.353710000000     0.538040000000    -0.180289   
N23      N      0.000480000000     0.620970000000     0.510940000000    -0.181575   
N24      N      0.032490000000     0.853400000000     0.497090000000    -0.167105   
N25      N      0.859840000000     0.488180000000     0.524850000000    -0.181528   
N26      N      0.626210000000     0.505430000000     0.525210000000    -0.18144    
N27      N      0.127220000000     0.493200000000     0.525400000000    -0.180188   
N28      N      0.359090000000     0.528180000000     0.524740000000    -0.181113   
N29      N      0.975500000000     0.405020000000     0.038600000000    -0.181752   
N30      N      0.950340000000     0.171440000000     0.042010000000    -0.167348   
N31      N      0.989550000000     0.672000000000     0.014030000000    -0.180218   
N32      N      0.950700000000     0.901550000000     0.971100000000    -0.165857   
N33      N      0.853480000000     0.541130000000     0.028550000000    -0.180461   
N34      N      0.620660000000     0.512560000000     0.026240000000    -0.181699   
N35      N      0.120440000000     0.527720000000     0.023220000000    -0.180793   
N36      N      0.353300000000     0.500950000000     0.026470000000    -0.180552   
N37      N      0.981120000000     0.528900000000     0.901060000000    -0.226868   
N38      N      0.989640000000     0.499940000000     0.649530000000    -0.228881   
N39      N      0.994120000000     0.475500000000     0.399140000000    -0.224319   
N40      N      0.989360000000     0.549460000000     0.151520000000    -0.224587   
O1       O      0.981890000000     0.606230000000     0.060700000000    -0.476784   
O2       O      0.992390000000     0.474660000000     0.074050000000    -0.479188   
O3       O      0.053350000000     0.541990000000     0.064470000000    -0.481096   
O4       O      0.922400000000     0.535020000000     0.068840000000    -0.47823    
O5       O      0.921450000000     0.546490000000     0.986120000000    -0.474029   
O6       O      0.051320000000     0.524890000000     0.982700000000    -0.479897   
O7       O      0.973800000000     0.471330000000     0.992880000000    -0.483496   
O8       O      0.998110000000     0.600490000000     0.979220000000    -0.480621   
O9       O      0.002760000000     0.555280000000     0.557530000000    -0.485984   
O10      O      0.988150000000     0.424970000000     0.572590000000    -0.483816   
O11      O      0.059400000000     0.485530000000     0.567920000000    -0.476633   
O12      O      0.928400000000     0.495650000000     0.565230000000    -0.484637   
O13      O      0.927930000000     0.479670000000     0.483450000000    -0.483139   
O14      O      0.058570000000     0.492400000000     0.484260000000    -0.478401   
O15      O      0.002140000000     0.419360000000     0.490520000000    -0.476179   
O16      O      0.986350000000     0.550460000000     0.475890000000    -0.479444   
O17      O      0.490860000000     0.565850000000     0.077980000000    -0.475289   
O18      O      0.479730000000     0.435240000000     0.056020000000    -0.476489   
O19      O      0.553100000000     0.497640000000     0.066560000000    -0.483214   
O20      O      0.421740000000     0.505510000000     0.068010000000    -0.474261   
O21      O      0.421670000000     0.497590000000     0.984700000000    -0.474497   
O22      O      0.551740000000     0.517300000000     0.985860000000    -0.48457    
O23      O      0.495630000000     0.442610000000     0.974530000000    -0.474258   
O24      O      0.473170000000     0.571650000000     0.996880000000    -0.477947   
O25      O      0.491480000000     0.579320000000     0.579740000000    -0.472328   
O26      O      0.478850000000     0.450290000000     0.550220000000    -0.475927   
O27      O      0.557000000000     0.509520000000     0.565570000000    -0.484285   
O28      O      0.426270000000     0.521290000000     0.567260000000    -0.482362   
O29      O      0.428590000000     0.529220000000     0.484160000000    -0.480897   
O30      O      0.559630000000     0.516560000000     0.482360000000    -0.47633    
O31      O      0.495440000000     0.460390000000     0.469290000000    -0.470687   
O32      O      0.508020000000     0.589440000000     0.498710000000    -0.472143   
O33      O      0.987610000000     0.971890000000     0.971940000000    -0.394686   
O34      O      0.989270000000     0.104120000000     0.026400000000    -0.398551   
O35      O      0.996180000000     0.013890000000     0.068830000000    -0.408142   
O36      O      0.981460000000     0.063630000000     0.928590000000    -0.406401   
O37      O      0.905730000000     0.050790000000     0.932210000000    -0.397778   
O38      O      0.920450000000     0.022000000000     0.081250000000    -0.400034   
O39      O      0.912440000000     0.105190000000     0.021440000000    -0.401066   
O40      O      0.913110000000     0.967770000000     0.992550000000    -0.400509   
O41      O      0.071050000000     0.919290000000     0.517600000000    -0.401101   
O42      O      0.071830000000     0.056300000000     0.548720000000    -0.401139   
O43      O      0.078810000000     0.972360000000     0.607620000000    -0.398385   
O44      O      0.063470000000     0.003420000000     0.459260000000    -0.400535   
O45      O      0.987860000000     0.011940000000     0.472220000000    -0.407323   
O46      O      0.003000000000     0.960140000000     0.611610000000    -0.405811   
O47      O      0.997420000000     0.052530000000     0.569830000000    -0.39452    
O48      O      0.994200000000     0.921020000000     0.513230000000    -0.39768    
O49      O      0.478090000000     0.937050000000     0.043440000000    -0.397485   
O50      O      0.481300000000     0.068680000000     0.987460000000    -0.394305   
O51      O      0.479390000000     0.027660000000     0.085620000000    -0.408126   
O52      O      0.480240000000     0.976870000000     0.944970000000    -0.405999   
O53      O      0.404630000000     0.989900000000     0.939550000000    -0.398235   
O54      O      0.403020000000     0.019010000000     0.089370000000    -0.398581   
O55      O      0.405350000000     0.073230000000     0.999970000000    -0.397434   
O56      O      0.402240000000     0.935350000000     0.029340000000    -0.397503   
O57      O      0.557570000000     0.955880000000     0.549040000000    -0.395456   
O58      O      0.535360000000     0.088370000000     0.500800000000    -0.393859   
O59      O      0.563130000000     0.047350000000     0.595370000000    -0.398908   
O60      O      0.531270000000     0.997160000000     0.457850000000    -0.40767    
O61      O      0.457250000000     0.990390000000     0.479670000000    -0.400556   
O62      O      0.488520000000     0.044450000000     0.615890000000    -0.405      
O63      O      0.461540000000     0.082020000000     0.523780000000    -0.399495   
O64      O      0.484560000000     0.951300000000     0.575250000000    -0.395086   


