data_structure

_audit_creation_method RASPA-1.0
_audit_creation_date 2023-5-23
_audit_author_name 'Poobodin Mano'

_cell_length_a    44.4356
_cell_length_b    44.4044
_cell_length_c    44.368
_cell_angle_alpha 90
_cell_angle_beta  90
_cell_angle_gamma 90
_cell_volume      87544.1

_symmetry_cell_setting          triclinic
_symmetry_space_group_name_Hall 'P 1'
_symmetry_space_group_name_H-M  'P 1'
_symmetry_Int_Tables_number     1

_symmetry_equiv_pos_as_xyz 'x,y,z'

loop_
_atom_site_label
_atom_site_type_symbol
_atom_site_fract_x
_atom_site_fract_y
_atom_site_fract_z
_atom_site_charge
C1       C      0.595600000000     0.328150000000     0.992780000000     0.402884   
C2       C      0.714790000000     0.326380000000     0.000440000000     0.403279   
C3       C      0.654470000000     0.267470000000     0.992060000000     0.403176   
C4       C      0.656080000000     0.386720000000     0.001290000000     0.401951   
C5       C      0.381380000000     0.332190000000     0.988310000000     0.402756   
C6       C      0.261970000000     0.330560000000     0.993350000000     0.403349   
C7       C      0.322660000000     0.271690000000     0.989050000000     0.404209   
C8       C      0.321180000000     0.391200000000     0.992200000000     0.402955   
C9       C      0.730680000000     0.658650000000     0.009330000000     0.402608   
C10      C      0.611270000000     0.662340000000     0.005300000000     0.402126   
C11      C      0.668860000000     0.600720000000     0.008500000000     0.402042   
C12      C      0.672770000000     0.720240000000     0.005690000000     0.402994   
C13      C      0.277500000000     0.665420000000     0.997970000000     0.403765   
C14      C      0.396950000000     0.663990000000     0.001290000000     0.402232   
C15      C      0.336110000000     0.605020000000     0.997110000000     0.402883   
C16      C      0.337990000000     0.724470000000     0.002340000000     0.403197   
C17      C      0.598510000000     0.998810000000     0.658950000000     0.40231    
C18      C      0.717960000000     0.998620000000     0.661960000000     0.402333   
C19      C      0.656240000000     0.995750000000     0.720190000000     0.402939   
C20      C      0.660060000000     0.000980000000     0.600680000000     0.403578   
C21      C      0.384320000000     0.000250000000     0.662220000000     0.404076   
C22      C      0.264920000000     0.996660000000     0.662070000000     0.403066   
C23      C      0.324630000000     0.998880000000     0.721930000000     0.403984   
C24      C      0.324910000000     0.998790000000     0.602420000000     0.403065   
C25      C      0.279530000000     0.002070000000     0.329290000000     0.404576   
C26      C      0.398950000000     0.999610000000     0.328340000000     0.402082   
C27      C      0.339310000000     0.001700000000     0.388610000000     0.404638   
C28      C      0.338750000000     0.999070000000     0.269150000000     0.403839   
C29      C      0.732560000000     0.000910000000     0.328550000000     0.405196   
C30      C      0.613180000000     0.001730000000     0.324540000000     0.403558   
C31      C      0.670870000000     0.001450000000     0.386290000000     0.403415   
C32      C      0.674950000000     0.001580000000     0.266630000000     0.403842   
C33      C      0.000490000000     0.661800000000     0.728630000000     0.404703   
C34      C      0.993960000000     0.658540000000     0.609150000000     0.403767   
C35      C      0.997420000000     0.600080000000     0.670730000000     0.403632   
C36      C      0.997220000000     0.719680000000     0.667460000000     0.404433   
C37      C      0.999860000000     0.385790000000     0.674370000000     0.403389   
C38      C      0.998320000000     0.266440000000     0.666230000000     0.404704   
C39      C      0.994240000000     0.321590000000     0.729900000000     0.402399   
C40      C      0.004180000000     0.330190000000     0.610610000000     0.40137    
C41      C      0.991690000000     0.671240000000     0.395120000000     0.403547   
C42      C      0.996570000000     0.673970000000     0.275670000000     0.40425    
C43      C      0.992000000000     0.732600000000     0.336780000000     0.403948   
C44      C      0.996130000000     0.613180000000     0.334150000000     0.403192   
C45      C      0.009020000000     0.338830000000     0.395920000000     0.400883   
C46      C      0.002210000000     0.339860000000     0.276260000000     0.401788   
C47      C      0.008660000000     0.279540000000     0.335570000000     0.403007   
C48      C      0.003190000000     0.398950000000     0.336470000000     0.402716   
C49      C      0.928610000000     0.327260000000     0.005030000000     0.403439   
C50      C      0.048010000000     0.327380000000     0.000930000000     0.402199   
C51      C      0.985870000000     0.319650000000     0.943660000000     0.401652   
C52      C      0.989870000000     0.334820000000     0.062380000000     0.401895   
C53      C      0.944470000000     0.665400000000     0.003190000000     0.401244   
C54      C      0.063560000000     0.667270000000     0.001300000000     0.401609   
C55      C      0.003440000000     0.665790000000     0.942640000000     0.402578   
C56      C      0.004780000000     0.667130000000     0.061790000000     0.402544   
C57      C      0.065690000000     0.004990000000     0.329440000000     0.404125   
C58      C      0.946210000000     0.006290000000     0.328720000000     0.404317   
C59      C      0.006760000000     0.065550000000     0.329440000000     0.403538   
C60      C      0.004870000000     0.945900000000     0.329070000000     0.40352    
C61      C      0.931930000000     0.993620000000     0.664090000000     0.401832   
C62      C      0.051010000000     0.992790000000     0.663010000000     0.402164   
C63      C      0.991330000000     0.933550000000     0.663180000000     0.402616   
C64      C      0.991940000000     0.052610000000     0.664050000000     0.402979   
C65      C      0.661910000000     0.053450000000     0.990880000000     0.403019   
C66      C      0.667240000000     0.934060000000     0.995590000000     0.402741   
C67      C      0.671760000000     0.995860000000     0.052540000000     0.402583   
C68      C      0.657420000000     0.990750000000     0.933920000000     0.403116   
C69      C      0.325750000000     0.057740000000     0.993930000000     0.40372    
C70      C      0.329300000000     0.938200000000     0.997350000000     0.403693   
C71      C      0.329150000000     0.999540000000     0.055390000000     0.403119   
C72      C      0.325780000000     0.996440000000     0.935890000000     0.40475    
C73      C      0.992920000000     0.114010000000     0.353740000000    -0.022775   
C74      C      0.030190000000     0.231140000000     0.316770000000    -0.022723   
C75      C      0.989710000000     0.230110000000     0.353620000000    -0.0230884  
C76      C      0.998850000000     0.199130000000     0.345330000000     0.0150434  
C77      C      0.020390000000     0.199670000000     0.322750000000     0.0133592  
C78      C      0.029490000000     0.173110000000     0.308180000000    -0.0654293  
C79      C      0.021860000000     0.114960000000     0.307230000000    -0.0225465  
C80      C      0.988420000000     0.171990000000     0.357520000000    -0.0667855  
C81      C      0.017450000000     0.145970000000     0.319080000000     0.0133442  
C82      C      0.999140000000     0.145410000000     0.344370000000     0.0150128  
C83      C      0.976610000000     0.324190000000     0.228960000000    -0.0230424  
C84      C      0.006990000000     0.360950000000     0.109360000000    -0.0231317  
C85      C      0.973190000000     0.318070000000     0.113020000000    -0.0234909  
C86      C      0.981310000000     0.329150000000     0.143380000000     0.0151584  
C87      C      0.002190000000     0.352250000000     0.141460000000     0.0132245  
C88      C      0.016780000000     0.363190000000     0.167350000000    -0.0653008  
C89      C      0.020280000000     0.357000000000     0.225710000000    -0.0228879  
C90      C      0.970910000000     0.318500000000     0.171200000000    -0.0669557  
C91      C      0.007600000000     0.351190000000     0.195210000000     0.0130931  
C92      C      0.983980000000     0.330900000000     0.197080000000     0.014969   
C93      C      0.973990000000     0.447020000000     0.335980000000    -0.0223929  
C94      C      0.025090000000     0.565030000000     0.333380000000    -0.0224152  
C95      C      0.970410000000     0.563320000000     0.334250000000    -0.0225795  
C96      C      0.983110000000     0.532450000000     0.334430000000     0.0139654  
C97      C      0.014290000000     0.533430000000     0.334090000000     0.0135685  
C98      C      0.031570000000     0.507060000000     0.334660000000    -0.0659787  
C99      C      0.028670000000     0.448870000000     0.336210000000    -0.0224636  
C100     C      0.967450000000     0.505050000000     0.335030000000    -0.0661435  
C101     C      0.015920000000     0.479670000000     0.335400000000     0.0135739  
C102     C      0.984740000000     0.478660000000     0.335430000000     0.0139925  
C103     C      0.016700000000     0.897020000000     0.353620000000    -0.0230329  
C104     C      0.972100000000     0.781840000000     0.318540000000    -0.0228192  
C105     C      0.012120000000     0.781120000000     0.355890000000    -0.0234084  
C106     C      0.004930000000     0.812410000000     0.347010000000     0.0148642  
C107     C      0.983650000000     0.812800000000     0.324170000000     0.0137129  
C108     C      0.976540000000     0.839600000000     0.308930000000    -0.0655483  
C109     C      0.988110000000     0.897100000000     0.306890000000    -0.0225256  
C110     C      0.017090000000     0.839020000000     0.358700000000    -0.0668071  
C111     C      0.990280000000     0.866100000000     0.319400000000     0.0136224  
C112     C      0.008370000000     0.865950000000     0.344850000000     0.0147339  
C113     C      0.976880000000     0.656540000000     0.226310000000    -0.0228782  
C114     C      0.021360000000     0.689420000000     0.110620000000    -0.0227447  
C115     C      0.987210000000     0.646630000000     0.110840000000    -0.0226759  
C116     C      0.992590000000     0.657600000000     0.141920000000     0.0145012  
C117     C      0.013620000000     0.680660000000     0.141940000000     0.0136252  
C118     C      0.024890000000     0.692600000000     0.168950000000    -0.065974   
C119     C      0.020830000000     0.689160000000     0.227260000000    -0.0226513  
C120     C      0.978720000000     0.648020000000     0.168600000000    -0.066536   
C121     C      0.012410000000     0.681540000000     0.195780000000     0.0135973  
C122     C      0.988640000000     0.661330000000     0.195440000000     0.0146084  
C123     C      0.037100000000     0.336570000000     0.445240000000    -0.022556   
C124     C      0.979690000000     0.334580000000     0.560570000000    -0.0227799  
C125     C      0.034260000000     0.331890000000     0.562600000000    -0.0224413  
C126     C      0.023710000000     0.333990000000     0.530750000000     0.0122563  
C127     C      0.992580000000     0.335570000000     0.529870000000     0.0150217  
C128     C      0.976850000000     0.337510000000     0.502670000000    -0.0671815  
C129     C      0.982500000000     0.339430000000     0.444980000000    -0.0228172  
C130     C      0.040870000000     0.334210000000     0.504060000000    -0.0646434  
C131     C      0.993900000000     0.337800000000     0.476190000000     0.0149719  
C132     C      0.025030000000     0.336170000000     0.476650000000     0.0123202  
C133     C      0.966750000000     0.332010000000     0.777670000000    -0.0230444  
C134     C      0.002470000000     0.295150000000     0.895840000000    -0.0235954  
C135     C      0.965250000000     0.335210000000     0.893990000000    -0.0235603  
C136     C      0.973330000000     0.325340000000     0.863150000000     0.0146998  
C137     C      0.996130000000     0.304060000000     0.864090000000     0.0141228  
C138     C      0.011170000000     0.295180000000     0.837690000000    -0.0658201  
C139     C      0.013420000000     0.303530000000     0.779630000000    -0.022877   
C140     C      0.961480000000     0.335680000000     0.835760000000    -0.0664743  
C141     C      0.000470000000     0.307010000000     0.810330000000     0.0134637  
C142     C      0.975040000000     0.325040000000     0.809320000000     0.0147463  
C143     C      0.010930000000     0.100870000000     0.685100000000    -0.02273    
C144     C      0.974630000000     0.218480000000     0.649120000000    -0.022751   
C145     C      0.019810000000     0.216690000000     0.680010000000    -0.0226192  
C146     C      0.008420000000     0.185920000000     0.674000000000     0.0139521  
C147     C      0.983900000000     0.186860000000     0.654710000000     0.0143894  
C148     C      0.971280000000     0.160430000000     0.642910000000    -0.0663124  
C149     C      0.975280000000     0.102110000000     0.643520000000    -0.0228704  
C150     C      0.019070000000     0.158650000000     0.685750000000    -0.0661449  
C151     C      0.983290000000     0.133090000000     0.653160000000     0.014348   
C152     C      0.005140000000     0.132290000000     0.675450000000     0.0139356  
C153     C      0.018250000000     0.667390000000     0.444060000000    -0.0225959  
C154     C      0.964850000000     0.660360000000     0.560800000000    -0.0224263  
C155     C      0.019500000000     0.658220000000     0.559440000000    -0.0226056  
C156     C      0.007120000000     0.660770000000     0.528640000000     0.0143066  
C157     C      0.975960000000     0.662040000000     0.529220000000     0.0132548  
C158     C      0.959160000000     0.665010000000     0.502550000000    -0.0654152  
C159     C      0.963590000000     0.669740000000     0.444160000000    -0.0224273  
C160     C      0.023250000000     0.662370000000     0.501660000000    -0.0667319  
C161     C      0.975370000000     0.666590000000     0.475410000000     0.0132696  
C162     C      0.006540000000     0.665280000000     0.475130000000     0.0142718  
C163     C      0.027030000000     0.435080000000     0.676840000000    -0.0225317  
C164     C      0.970570000000     0.550710000000     0.672970000000    -0.022634   
C165     C      0.025270000000     0.551440000000     0.672580000000    -0.0223117  
C166     C      0.014020000000     0.520060000000     0.674180000000     0.0132426  
C167     C      0.982830000000     0.519630000000     0.674180000000     0.0142539  
C168     C      0.966780000000     0.492490000000     0.674800000000    -0.0663723  
C169     C      0.972340000000     0.434520000000     0.675670000000    -0.0225647  
C170     C      0.030920000000     0.493410000000     0.675240000000    -0.0657001  
C171     C      0.983680000000     0.465860000000     0.675720000000     0.0141234  
C172     C      0.014870000000     0.466250000000     0.676150000000     0.0133946  
C173     C      0.974490000000     0.884510000000     0.684380000000    -0.023004   
C174     C      0.019340000000     0.768840000000     0.651560000000    -0.022713   
C175     C      0.974050000000     0.768350000000     0.682330000000    -0.0227189  
C176     C      0.983480000000     0.799650000000     0.675790000000     0.0146542  
C177     C      0.008040000000     0.799940000000     0.656530000000     0.0136357  
C178     C      0.018600000000     0.826900000000     0.643890000000    -0.0657046  
C179     C      0.010080000000     0.884810000000     0.642750000000    -0.0226669  
C180     C      0.970780000000     0.826370000000     0.686720000000    -0.0666975  
C181     C      0.004540000000     0.853580000000     0.653340000000     0.0134655  
C182     C      0.982690000000     0.853370000000     0.675640000000     0.014761   
C183     C      0.025840000000     0.649700000000     0.777280000000    -0.022489   
C184     C      0.984980000000     0.685680000000     0.893610000000    -0.0228412  
C185     C      0.022080000000     0.645420000000     0.893810000000    -0.0226324  
C186     C      0.014990000000     0.654770000000     0.862500000000     0.013638   
C187     C      0.992300000000     0.676200000000     0.862430000000     0.0146574  
C188     C      0.978670000000     0.685560000000     0.835560000000    -0.0666496  
C189     C      0.979250000000     0.678430000000     0.777660000000    -0.0226742  
C190     C      0.028180000000     0.644730000000     0.835600000000    -0.0657863  
C191     C      0.990560000000     0.673970000000     0.808730000000     0.0146565  
C192     C      0.015910000000     0.655780000000     0.808660000000     0.01371    
C193     C      0.781890000000     0.979940000000     0.312290000000    -0.0228101  
C194     C      0.897030000000     0.020440000000     0.351570000000    -0.0231382  
C195     C      0.897720000000     0.990120000000     0.305930000000    -0.0236617  
C196     C      0.866450000000     0.994330000000     0.316850000000     0.0131203  
C197     C      0.865980000000     0.013470000000     0.341530000000     0.0156871  
C198     C      0.838840000000     0.024280000000     0.353400000000    -0.0671319  
C199     C      0.780870000000     0.021940000000     0.347450000000    -0.0232651  
C200     C      0.839940000000     0.981450000000     0.305540000000    -0.0655185  
C201     C      0.812270000000     0.013000000000     0.340670000000     0.015759   
C202     C      0.812850000000     0.990590000000     0.318930000000     0.0129178  
C203     C      0.660280000000     0.978010000000     0.218240000000    -0.023197   
C204     C      0.696610000000     0.013530000000     0.100120000000    -0.0225158  
C205     C      0.655310000000     0.977710000000     0.102580000000    -0.023017   
C206     C      0.665680000000     0.985690000000     0.133170000000     0.0140911  
C207     C      0.687820000000     0.007640000000     0.132030000000     0.014161   
C208     C      0.697890000000     0.021950000000     0.158460000000    -0.0656893  
C209     C      0.691190000000     0.023160000000     0.217000000000    -0.0228714  
C210     C      0.655270000000     0.974040000000     0.160510000000    -0.0665879  
C211     C      0.686040000000     0.011450000000     0.185940000000     0.0140483  
C212     C      0.666800000000     0.986900000000     0.186820000000     0.0140399  
C213     C      0.563840000000     0.028750000000     0.323340000000    -0.0229399  
C214     C      0.448200000000     0.972290000000     0.326670000000    -0.0222048  
C215     C      0.447710000000     0.027020000000     0.327510000000    -0.0222881  
C216     C      0.478990000000     0.015670000000     0.326080000000     0.0149268  
C217     C      0.479350000000     0.984460000000     0.325860000000     0.0124787  
C218     C      0.506490000000     0.968390000000     0.325220000000    -0.065267   
C219     C      0.564500000000     0.974020000000     0.324340000000    -0.0224936  
C220     C      0.505620000000     0.032580000000     0.325140000000    -0.0668418  
C221     C      0.533140000000     0.985310000000     0.324500000000     0.0123679  
C222     C      0.532730000000     0.016520000000     0.324210000000     0.0151489  
C223     C      0.114770000000     0.019620000000     0.306740000000    -0.0231186  
C224     C      0.230370000000     0.982480000000     0.347610000000    -0.0229494  
C225     C      0.230990000000     0.024060000000     0.311940000000    -0.0231454  
C226     C      0.199630000000     0.014880000000     0.318880000000     0.0153986  
C227     C      0.199320000000     0.992710000000     0.340870000000     0.013088   
C228     C      0.172340000000     0.982930000000     0.353990000000    -0.0655851  
C229     C      0.114350000000     0.989690000000     0.352640000000    -0.0227402  
C230     C      0.172900000000     0.025270000000     0.305690000000    -0.0668767  
C231     C      0.145640000000     0.994970000000     0.342250000000     0.0130568  
C232     C      0.145900000000     0.013870000000     0.317390000000     0.0154799  
C233     C      0.308340000000     0.984660000000     0.105260000000    -0.0228514  
C234     C      0.355120000000     0.019260000000     0.219510000000    -0.0227375  
C235     C      0.319940000000     0.977330000000     0.221040000000    -0.0222662  
C236     C      0.325020000000     0.987370000000     0.189560000000     0.0127399  
C237     C      0.346710000000     0.009780000000     0.188620000000     0.015668   
C238     C      0.358140000000     0.020480000000     0.161220000000    -0.0671503  
C239     C      0.353710000000     0.015240000000     0.103240000000    -0.0230448  
C240     C      0.310460000000     0.977560000000     0.163300000000    -0.0653977  
C241     C      0.345030000000     0.009070000000     0.134880000000     0.0156916  
C242     C      0.320480000000     0.989840000000     0.135970000000     0.0128848  
C243     C      0.326860000000     0.972000000000     0.552990000000    -0.0220002  
C244     C      0.336360000000     0.028960000000     0.437870000000    -0.0227863  
C245     C      0.338250000000     0.974240000000     0.437330000000    -0.0224062  
C246     C      0.334950000000     0.985470000000     0.468520000000     0.012586   
C247     C      0.334090000000     0.016670000000     0.468940000000     0.0150222  
C248     C      0.331290000000     0.032630000000     0.496030000000    -0.066703   
C249     C      0.326590000000     0.026740000000     0.553880000000    -0.0221732  
C250     C      0.332590000000     0.968440000000     0.495000000000    -0.0655041  
C251     C      0.329150000000     0.015590000000     0.522550000000     0.0148408  
C252     C      0.329550000000     0.984380000000     0.522040000000     0.012671   
C253     C      0.343170000000     0.978220000000     0.770510000000    -0.0224954  
C254     C      0.301760000000     0.010830000000     0.887360000000    -0.0223866  
C255     C      0.348080000000     0.981650000000     0.886670000000    -0.0224255  
C256     C      0.337470000000     0.987700000000     0.855600000000     0.0133911  
C257     C      0.312350000000     0.006210000000     0.855980000000     0.0152331  
C258     C      0.300550000000     0.018410000000     0.829330000000    -0.0666635  
C259     C      0.307010000000     0.019330000000     0.771140000000    -0.0225862  
C260     C      0.349400000000     0.976780000000     0.828510000000    -0.0657638  
C261     C      0.313930000000     0.009150000000     0.802250000000     0.0152621  
C262     C      0.336200000000     0.987290000000     0.801850000000     0.013347   
C263     C      0.216610000000     0.972670000000     0.677520000000    -0.022282   
C264     C      0.099520000000     0.010760000000     0.641600000000    -0.0228627  
C265     C      0.100300000000     0.975380000000     0.683440000000    -0.0224652  
C266     C      0.131370000000     0.982630000000     0.673500000000     0.0125539  
C267     C      0.130870000000     0.004320000000     0.651040000000     0.0154741  
C268     C      0.157430000000     0.017680000000     0.640490000000    -0.0671134  
C269     C      0.215470000000     0.017590000000     0.646190000000    -0.0228067  
C270     C      0.158530000000     0.970220000000     0.683740000000    -0.0653167  
C271     C      0.184550000000     0.006600000000     0.652180000000     0.0155395  
C272     C      0.185130000000     0.982230000000     0.671700000000     0.0125387  
C273     C      0.668590000000     0.028930000000     0.435250000000    -0.0227917  
C274     C      0.661700000000     0.974470000000     0.551430000000    -0.022647   
C275     C      0.663040000000     0.029190000000     0.551820000000    -0.022838   
C276     C      0.664440000000     0.017490000000     0.520430000000     0.014723   
C277     C      0.663960000000     0.986280000000     0.520350000000     0.012806   
C278     C      0.665520000000     0.969730000000     0.493520000000    -0.0656537  
C279     C      0.669220000000     0.974190000000     0.435450000000    -0.0227008  
C280     C      0.665940000000     0.033910000000     0.493470000000    -0.0664296  
C281     C      0.667320000000     0.986120000000     0.466630000000     0.0129205  
C282     C      0.667240000000     0.017330000000     0.466570000000     0.0145904  
C283     C      0.549820000000     0.026620000000     0.659030000000    -0.0223011  
C284     C      0.433200000000     0.973200000000     0.660930000000    -0.0225216  
C285     C      0.433450000000     0.027920000000     0.662730000000    -0.0227602  
C286     C      0.464670000000     0.015920000000     0.661500000000     0.0148063  
C287     C      0.464420000000     0.984720000000     0.660690000000     0.0127483  
C288     C      0.491080000000     0.967920000000     0.659740000000    -0.0656159  
C289     C      0.549210000000     0.971880000000     0.658720000000    -0.0221701  
C290     C      0.491760000000     0.032100000000     0.660970000000    -0.0665069  
C291     C      0.518130000000     0.984070000000     0.659410000000     0.0128088  
C292     C      0.518460000000     0.015280000000     0.659800000000     0.0146627  
C293     C      0.766640000000     0.976280000000     0.645890000000    -0.0225832  
C294     C      0.883300000000     0.011840000000     0.685360000000    -0.0225438  
C295     C      0.882740000000     0.977580000000     0.642620000000    -0.0225856  
C296     C      0.851660000000     0.985290000000     0.651980000000     0.0131332  
C297     C      0.851980000000     0.006360000000     0.675020000000     0.0148201  
C298     C      0.825310000000     0.019790000000     0.685370000000    -0.0665068  
C299     C      0.767150000000     0.020220000000     0.678590000000    -0.0226934  
C300     C      0.824610000000     0.973580000000     0.640790000000    -0.0657994  
C301     C      0.798270000000     0.009420000000     0.672740000000     0.0149165  
C302     C      0.797940000000     0.985640000000     0.652500000000     0.0131359  
C303     C      0.638140000000     0.015060000000     0.769790000000    -0.022371   
C304     C      0.674450000000     0.971110000000     0.884400000000    -0.023586   
C305     C      0.631700000000     0.005250000000     0.886110000000    -0.0203962  
C306     C      0.640850000000     0.999200000000     0.854410000000     0.0117298  
C307     C      0.663790000000     0.978070000000     0.853590000000     0.0153766  
C308     C      0.674780000000     0.966640000000     0.826320000000    -0.0668606  
C309     C      0.670150000000     0.970670000000     0.768310000000    -0.0227654  
C310     C      0.630610000000     0.013150000000     0.827930000000    -0.0643112  
C311     C      0.662940000000     0.978990000000     0.799840000000     0.0140498  
C312     C      0.643000000000     0.002990000000     0.800640000000     0.0140341  
C313     C      0.354340000000     0.889950000000     0.984030000000    -0.0230088  
C314     C      0.319970000000     0.772950000000     0.024140000000    -0.022583   
C315     C      0.355800000000     0.773780000000     0.982740000000    -0.0231222  
C316     C      0.347450000000     0.804800000000     0.991700000000     0.0152022  
C317     C      0.325410000000     0.804320000000     0.013790000000     0.0131951  
C318     C      0.310680000000     0.830810000000     0.022760000000    -0.0653821  
C319     C      0.308580000000     0.888730000000     0.014050000000    -0.0226504  
C320     C      0.358980000000     0.831940000000     0.980510000000    -0.0668537  
C321     C      0.320900000000     0.857880000000     0.010010000000     0.0132097  
C322     C      0.345720000000     0.858510000000     0.991100000000     0.0151469  
C323     C      0.228610000000     0.648840000000     0.019320000000    -0.0230439  
C324     C      0.112270000000     0.688500000000     0.983020000000    -0.0226973  
C325     C      0.112660000000     0.645960000000     0.017520000000    -0.0228118  
C326     C      0.143750000000     0.655170000000     0.009810000000     0.0141029  
C327     C      0.143570000000     0.678120000000     0.988640000000     0.0139101  
C328     C      0.170340000000     0.688370000000     0.975310000000    -0.0659513  
C329     C      0.228550000000     0.681520000000     0.975350000000    -0.0226937  
C330     C      0.170690000000     0.643920000000     0.021660000000    -0.0664812  
C331     C      0.197300000000     0.675680000000     0.985850000000     0.0138964  
C332     C      0.197430000000     0.655480000000     0.009660000000     0.0141925  
C333     C      0.561730000000     0.662850000000     0.031510000000    -0.0223937  
C334     C      0.446450000000     0.663720000000     0.974930000000    -0.0224494  
C335     C      0.445500000000     0.663850000000     0.029710000000    -0.0225443  
C336     C      0.476950000000     0.663760000000     0.018420000000     0.0134087  
C337     C      0.477480000000     0.663880000000     0.987190000000     0.0140584  
C338     C      0.504640000000     0.664090000000     0.971090000000    -0.066223   
C339     C      0.562780000000     0.664090000000     0.976750000000    -0.0225418  
C340     C      0.503590000000     0.663440000000     0.035320000000    -0.0658353  
C341     C      0.531290000000     0.663980000000     0.988000000000     0.0141387  
C342     C      0.530740000000     0.663480000000     0.019230000000     0.0132672  
C343     C      0.691810000000     0.885230000000     0.982760000000    -0.0228807  
C344     C      0.655250000000     0.769720000000     0.025080000000    -0.0227638  
C345     C      0.690280000000     0.768590000000     0.983000000000    -0.0228255  
C346     C      0.682820000000     0.800110000000     0.991330000000     0.0144118  
C347     C      0.661200000000     0.800600000000     0.013840000000     0.0138202  
C348     C      0.647400000000     0.827550000000     0.022770000000    -0.0660121  
C349     C      0.646560000000     0.885210000000     0.013570000000    -0.0228302  
C350     C      0.694920000000     0.826850000000     0.979630000000    -0.0662923  
C351     C      0.658080000000     0.854130000000     0.009530000000     0.0138388  
C352     C      0.682570000000     0.853950000000     0.990180000000     0.014417   
C353     C      0.779630000000     0.641760000000     0.988020000000    -0.0231351  
C354     C      0.895370000000     0.685200000000     0.021920000000    -0.0227402  
C355     C      0.895780000000     0.642400000000     0.987740000000    -0.0230817  
C356     C      0.864520000000     0.650610000000     0.995990000000     0.0149113  
C357     C      0.864350000000     0.673690000000     0.017010000000     0.0130792  
C358     C      0.837520000000     0.683150000000     0.030800000000    -0.0654835  
C359     C      0.779580000000     0.674570000000     0.031890000000    -0.022746   
C360     C      0.837710000000     0.638450000000     0.984700000000    -0.066868   
C361     C      0.810780000000     0.669530000000     0.020880000000     0.0131436  
C362     C      0.810820000000     0.649230000000     0.997160000000     0.014963   
C363     C      0.322710000000     0.440780000000     0.965920000000    -0.0227722  
C364     C      0.334060000000     0.555350000000     0.022980000000    -0.0225887  
C365     C      0.332760000000     0.556770000000     0.968230000000    -0.0226737  
C366     C      0.330200000000     0.525310000000     0.979320000000     0.0141752  
C367     C      0.330750000000     0.524570000000     0.010550000000     0.0133459  
C368     C      0.328270000000     0.497460000000     0.026520000000    -0.0658809  
C369     C      0.322680000000     0.439650000000     0.020700000000    -0.022585   
C370     C      0.327510000000     0.498850000000     0.962300000000    -0.0662214  
C371     C      0.325360000000     0.471040000000     0.009520000000     0.0134128  
C372     C      0.325180000000     0.471700000000     0.978290000000     0.0141413  
C373     C      0.097810000000     0.307190000000     0.017180000000    -0.0228111  
C374     C      0.211990000000     0.345420000000     0.972850000000    -0.0230343  
C375     C      0.214140000000     0.314390000000     0.017940000000    -0.0227567  
C376     C      0.182440000000     0.319660000000     0.008730000000     0.0132823  
C377     C      0.181270000000     0.338940000000     0.984190000000     0.0147217  
C378     C      0.153840000000     0.350100000000     0.973330000000    -0.0666541  
C379     C      0.096040000000     0.348340000000     0.981080000000    -0.0231104  
C380     C      0.156160000000     0.307460000000     0.021290000000    -0.0657     
C381     C      0.127590000000     0.339320000000     0.987130000000     0.0146738  
C382     C      0.128680000000     0.317210000000     0.009160000000     0.0132528  
C383     C      0.348330000000     0.107350000000     0.006580000000    -0.0234529  
C384     C      0.305790000000     0.222240000000     0.968290000000    -0.0227596  
C385     C      0.342730000000     0.223360000000     0.008720000000    -0.0237479  
C386     C      0.335950000000     0.191940000000     0.999840000000     0.0155165  
C387     C      0.313290000000     0.191200000000     0.978390000000     0.0135754  
C388     C      0.299920000000     0.163910000000     0.969690000000    -0.0655936  
C389     C      0.301570000000     0.105920000000     0.978140000000    -0.0226548  
C390     C      0.349480000000     0.165510000000     0.010450000000    -0.0671652  
C391     C      0.312130000000     0.137450000000     0.981960000000     0.0138937  
C392     C      0.337550000000     0.138240000000     0.000060000000     0.0147285  
C393     C      0.667530000000     0.551040000000     0.035570000000    -0.0223102  
C394     C      0.656680000000     0.437010000000     0.976890000000    -0.0225756  
C395     C      0.659170000000     0.434350000000     0.031540000000    -0.0223268  
C396     C      0.660720000000     0.466200000000     0.021180000000     0.0124045  
C397     C      0.659270000000     0.467510000000     0.990000000000     0.0149327  
C398     C      0.660510000000     0.494890000000     0.974510000000    -0.0671168  
C399     C      0.664950000000     0.552380000000     0.980870000000    -0.0226416  
C400     C      0.663480000000     0.492490000000     0.038630000000    -0.0648842  
C401     C      0.663250000000     0.521020000000     0.991860000000     0.014983   
C402     C      0.664700000000     0.520020000000     0.023050000000     0.0124289  
C403     C      0.430620000000     0.330690000000     0.960480000000    -0.0225717  
C404     C      0.545730000000     0.330480000000     0.017840000000    -0.0226727  
C405     C      0.547530000000     0.328160000000     0.963140000000    -0.0224517  
C406     C      0.515820000000     0.329490000000     0.973870000000     0.0133176  
C407     C      0.515010000000     0.330900000000     0.005060000000     0.0141589  
C408     C      0.487860000000     0.332420000000     0.020870000000    -0.066659   
C409     C      0.430210000000     0.333630000000     0.015180000000    -0.0225937  
C410     C      0.489220000000     0.329320000000     0.956720000000    -0.0654017  
C411     C      0.461410000000     0.332370000000     0.003810000000     0.0140487  
C412     C      0.461890000000     0.330770000000     0.972620000000     0.0133361  
C413     C      0.764210000000     0.345440000000     0.982710000000    -0.0229708  
C414     C      0.879570000000     0.304410000000     0.020290000000    -0.02255    
C415     C      0.879870000000     0.350600000000     0.990840000000    -0.0223497  
C416     C      0.848650000000     0.340130000000     0.996050000000     0.0149121  
C417     C      0.848370000000     0.315020000000     0.014600000000     0.0133088  
C418     C      0.821260000000     0.302980000000     0.025510000000    -0.0655184  
C419     C      0.763010000000     0.308850000000     0.023470000000    -0.0225926  
C420     C      0.822050000000     0.351960000000     0.983990000000    -0.0667705  
C421     C      0.794550000000     0.316240000000     0.015070000000     0.0132805  
C422     C      0.795050000000     0.338660000000     0.993340000000     0.0150699  
C423     C      0.670670000000     0.219500000000     0.967540000000    -0.0227134  
C424     C      0.638130000000     0.101540000000     0.006840000000    -0.0239389  
C425     C      0.680570000000     0.103190000000     0.972300000000    -0.0226169  
C426     C      0.669150000000     0.134050000000     0.978460000000     0.0132573  
C427     C      0.646190000000     0.133100000000     0.999580000000     0.0152589  
C428     C      0.634170000000     0.159470000000     0.012020000000    -0.0671635  
C429     C      0.637660000000     0.217620000000     0.011190000000    -0.0232098  
C430     C      0.678750000000     0.161440000000     0.965870000000    -0.0656073  
C431     C      0.644990000000     0.186830000000     0.000670000000     0.0144359  
C432     C      0.665320000000     0.187810000000     0.977000000000     0.0137102  
Cu1      Cu     0.657160000000     0.329350000000     0.968990000000     0.842457   
Cu2      Cu     0.653300000000     0.324800000000     0.024280000000     0.841458   
Cu3      Cu     0.323060000000     0.330470000000     0.018420000000     0.848022   
Cu4      Cu     0.320240000000     0.332320000000     0.962870000000     0.837433   
Cu5      Cu     0.669830000000     0.661390000000     0.035050000000     0.83814    
Cu6      Cu     0.672170000000     0.659640000000     0.979490000000     0.845588   
Cu7      Cu     0.338230000000     0.666230000000     0.971890000000     0.841265   
Cu8      Cu     0.336140000000     0.663330000000     0.027430000000     0.84433    
Cu9      Cu     0.658510000000     0.970850000000     0.659010000000     0.84788    
Cu10     Cu     0.657960000000     0.026400000000     0.661960000000     0.838543   
Cu11     Cu     0.323480000000     0.026470000000     0.661920000000     0.843426   
Cu12     Cu     0.325710000000     0.970890000000     0.662510000000     0.846241   
Cu13     Cu     0.338350000000     0.972840000000     0.329750000000     0.844165   
Cu14     Cu     0.340040000000     0.028390000000     0.327930000000     0.844835   
Cu15     Cu     0.673390000000     0.029300000000     0.326770000000     0.839561   
Cu16     Cu     0.672470000000     0.973680000000     0.326120000000     0.847411   
Cu17     Cu     0.969420000000     0.660180000000     0.670600000000     0.84529    
Cu18     Cu     0.025070000000     0.659640000000     0.667260000000     0.847134   
Cu19     Cu     0.971510000000     0.326830000000     0.667870000000     0.850337   
Cu20     Cu     0.027010000000     0.325300000000     0.672700000000     0.836967   
Cu21     Cu     0.021740000000     0.674070000000     0.336720000000     0.848392   
Cu22     Cu     0.966290000000     0.671750000000     0.334000000000     0.839485   
Cu23     Cu     0.978240000000     0.337740000000     0.337840000000     0.849125   
Cu24     Cu     0.033570000000     0.340730000000     0.334230000000     0.832805   
Cu25     Cu     0.988140000000     0.354760000000     0.999070000000     0.842978   
Cu26     Cu     0.988470000000     0.299750000000     0.006940000000     0.839427   
Cu27     Cu     0.003600000000     0.693980000000     0.001930000000     0.833959   
Cu28     Cu     0.004470000000     0.638890000000     0.002500000000     0.839379   
Cu29     Cu     0.006110000000     0.005800000000     0.301190000000     0.842865   
Cu30     Cu     0.005770000000     0.005640000000     0.357030000000     0.849348   
Cu31     Cu     0.991230000000     0.993310000000     0.636020000000     0.836916   
Cu32     Cu     0.991740000000     0.992870000000     0.691150000000     0.836707   
Cu33     Cu     0.637140000000     0.992680000000     0.996950000000     0.846694   
Cu34     Cu     0.692140000000     0.994840000000     0.989420000000     0.837344   
Cu35     Cu     0.299580000000     0.997180000000     0.996440000000     0.842813   
Cu36     Cu     0.355300000000     0.998770000000     0.994840000000     0.848821   
H1       H      0.992670000000     0.234290000000     0.378140000000     0.0413959  
H2       H      0.054030000000     0.234510000000     0.323540000000     0.0453765  
H3       H      0.045010000000     0.173540000000     0.289380000000     0.0443887  
H4       H      0.972740000000     0.171570000000     0.376190000000     0.0445649  
H5       H      0.003320000000     0.109080000000     0.375980000000     0.0462583  
H6       H      0.011100000000     0.112320000000     0.284780000000     0.0454594  
H7       H      0.965790000000     0.234270000000     0.347590000000     0.0463485  
H8       H      0.027720000000     0.237150000000     0.292580000000     0.0410062  
H9       H      0.046130000000     0.109220000000     0.305250000000     0.0406579  
H10      H      0.968350000000     0.109550000000     0.355190000000     0.0408926  
H11      H      0.948510000000     0.319340000000     0.109160000000     0.0412218  
H12      H      0.998350000000     0.384010000000     0.104950000000     0.0452551  
H13      H      0.034460000000     0.379880000000     0.165890000000     0.0445273  
H14      H      0.953770000000     0.301240000000     0.172630000000     0.0446347  
H15      H      0.953880000000     0.332800000000     0.234860000000     0.0459488  
H16      H      0.043710000000     0.348430000000     0.227450000000     0.0454363  
H17      H      0.980570000000     0.294350000000     0.109910000000     0.046987   
H18      H      0.031180000000     0.360060000000     0.103050000000     0.0410053  
H19      H      0.020220000000     0.381420000000     0.231160000000     0.0416119  
H20      H      0.977360000000     0.299600000000     0.233590000000     0.0415756  
H21      H      0.956630000000     0.567540000000     0.354720000000     0.0445849  
H22      H      0.039290000000     0.570220000000     0.353350000000     0.0436522  
H23      H      0.055920000000     0.507800000000     0.334560000000     0.0442656  
H24      H      0.943100000000     0.504310000000     0.335220000000     0.0443662  
H25      H      0.960210000000     0.442480000000     0.356390000000     0.0435286  
H26      H      0.042880000000     0.444420000000     0.316080000000     0.0437766  
H27      H      0.956180000000     0.567120000000     0.314010000000     0.0434573  
H28      H      0.038340000000     0.569590000000     0.312630000000     0.0438549  
H29      H      0.042490000000     0.445350000000     0.356790000000     0.04441    
H30      H      0.960340000000     0.441730000000     0.315670000000     0.0441408  
H31      H      0.008410000000     0.777500000000     0.380390000000     0.0412178  
H32      H      0.948080000000     0.779950000000     0.325240000000     0.045098   
H33      H      0.961270000000     0.839800000000     0.289920000000     0.0443918  
H34      H      0.032640000000     0.838780000000     0.377480000000     0.0444789  
H35      H      0.006630000000     0.903070000000     0.375740000000     0.0465398  
H36      H      0.999300000000     0.898530000000     0.284540000000     0.0451879  
H37      H      0.035900000000     0.775550000000     0.350450000000     0.0468918  
H38      H      0.974320000000     0.775380000000     0.294440000000     0.0409864  
H39      H      0.964310000000     0.904410000000     0.304460000000     0.0405543  
H40      H      0.041510000000     0.899790000000     0.355060000000     0.0406735  
H41      H      0.962930000000     0.647450000000     0.104860000000     0.0416312  
H42      H      0.013820000000     0.712770000000     0.105700000000     0.0459034  
H43      H      0.042340000000     0.709600000000     0.169060000000     0.0445093  
H44      H      0.961110000000     0.631170000000     0.168460000000     0.0447339  
H45      H      0.953620000000     0.665460000000     0.228480000000     0.0457315  
H46      H      0.043730000000     0.680680000000     0.232710000000     0.0456395  
H47      H      0.995390000000     0.623130000000     0.108120000000     0.0457004  
H48      H      0.045980000000     0.687870000000     0.106490000000     0.0413647  
H49      H      0.020210000000     0.713860000000     0.231220000000     0.0410105  
H50      H      0.976820000000     0.632270000000     0.232450000000     0.0419536  
H51      H      0.048790000000     0.351350000000     0.568620000000     0.043546   
H52      H      0.966670000000     0.355370000000     0.565550000000     0.0442089  
H53      H      0.952520000000     0.338640000000     0.502120000000     0.0443235  
H54      H      0.065180000000     0.332850000000     0.504600000000     0.0442586  
H55      H      0.051940000000     0.356350000000     0.441470000000     0.0433859  
H56      H      0.967480000000     0.320070000000     0.439860000000     0.0442667  
H57      H      0.047080000000     0.310770000000     0.566540000000     0.0436734  
H58      H      0.964600000000     0.314800000000     0.563380000000     0.0442015  
H59      H      0.969820000000     0.360670000000     0.441150000000     0.0446069  
H60      H      0.050020000000     0.315740000000     0.440200000000     0.0436238  
H61      H      0.940890000000     0.331820000000     0.898520000000     0.0407015  
H62      H      0.995690000000     0.271410000000     0.899940000000     0.0452992  
H63      H      0.030390000000     0.280230000000     0.838440000000     0.0444404  
H64      H      0.942950000000     0.351490000000     0.835080000000     0.0444716  
H65      H      0.945020000000     0.321230000000     0.771570000000     0.0456609  
H66      H      0.035970000000     0.314280000000     0.778150000000     0.0458127  
H67      H      0.970730000000     0.359410000000     0.897340000000     0.0471036  
H68      H      0.026690000000     0.297740000000     0.901520000000     0.0408404  
H69      H      0.015580000000     0.279420000000     0.773280000000     0.0406939  
H70      H      0.964870000000     0.356680000000     0.773850000000     0.0414664  
H71      H      0.042640000000     0.219810000000     0.670270000000     0.0455998  
H72      H      0.974310000000     0.223760000000     0.624640000000     0.041274   
H73      H      0.953110000000     0.161110000000     0.626680000000     0.0446081  
H74      H      0.037190000000     0.157970000000     0.702050000000     0.0443992  
H75      H      0.035150000000     0.094950000000     0.683080000000     0.0415046  
H76      H      0.950720000000     0.097890000000     0.645650000000     0.0414311  
H77      H      0.020760000000     0.221540000000     0.704570000000     0.0411498  
H78      H      0.951950000000     0.222990000000     0.658670000000     0.0458609  
H79      H      0.982150000000     0.098040000000     0.619780000000     0.0459528  
H80      H      0.003710000000     0.097310000000     0.708820000000     0.0458138  
H81      H      0.034590000000     0.677480000000     0.564740000000     0.0443361  
H82      H      0.951600000000     0.680700000000     0.566890000000     0.0440042  
H83      H      0.934830000000     0.666120000000     0.502910000000     0.0443781  
H84      H      0.047600000000     0.661470000000     0.501320000000     0.0442109  
H85      H      0.032870000000     0.687510000000     0.441290000000     0.043673   
H86      H      0.948740000000     0.650540000000     0.438070000000     0.0437104  
H87      H      0.032340000000     0.636920000000     0.562260000000     0.0438833  
H88      H      0.950590000000     0.640100000000     0.564290000000     0.0435295  
H89      H      0.950770000000     0.691040000000     0.441410000000     0.043663   
H90      H      0.031400000000     0.646980000000     0.437980000000     0.0447169  
H91      H      0.038930000000     0.555090000000     0.651910000000     0.044344   
H92      H      0.956430000000     0.554110000000     0.652590000000     0.0436726  
H93      H      0.942430000000     0.492110000000     0.674410000000     0.044328   
H94      H      0.055280000000     0.493780000000     0.675190000000     0.0442266  
H95      H      0.041730000000     0.430590000000     0.657080000000     0.0437683  
H96      H      0.958320000000     0.429980000000     0.695910000000     0.0432965  
H97      H      0.039250000000     0.557060000000     0.692580000000     0.0435501  
H98      H      0.956850000000     0.555810000000     0.693280000000     0.0440319  
H99      H      0.958690000000     0.429890000000     0.655190000000     0.0448628  
H100     H      0.040130000000     0.430970000000     0.697780000000     0.0436619  
H101     H      0.951360000000     0.763690000000     0.672870000000     0.0460564  
H102     H      0.020350000000     0.763180000000     0.627180000000     0.0411326  
H103     H      0.036710000000     0.827110000000     0.627570000000     0.0444321  
H104     H      0.952570000000     0.826150000000     0.702930000000     0.0444432  
H105     H      0.949910000000     0.888500000000     0.682130000000     0.0413341  
H106     H      0.034270000000     0.890960000000     0.644510000000     0.04133    
H107     H      0.973600000000     0.763860000000     0.706980000000     0.040838   
H108     H      0.042100000000     0.765900000000     0.661500000000     0.045364   
H109     H      0.002750000000     0.887640000000     0.618970000000     0.0454919  
H110     H      0.981300000000     0.889270000000     0.708010000000     0.0461758  
H111     H      0.046370000000     0.648390000000     0.899000000000     0.0412591  
H112     H      0.991260000000     0.709610000000     0.897390000000     0.0459782  
H113     H      0.959730000000     0.700890000000     0.835550000000     0.0444622  
H114     H      0.046840000000     0.629050000000     0.835620000000     0.0445125  
H115     H      0.047920000000     0.660490000000     0.772640000000     0.0454078  
H116     H      0.956780000000     0.667830000000     0.774720000000     0.0460655  
H117     H      0.015900000000     0.621470000000     0.897630000000     0.0458305  
H118     H      0.960640000000     0.682840000000     0.898620000000     0.0413397  
H119     H      0.977500000000     0.702730000000     0.771930000000     0.0407243  
H120     H      0.027730000000     0.625140000000     0.772780000000     0.0410596  
H121     H      0.900730000000     0.000270000000     0.283240000000     0.0464234  
H122     H      0.901100000000     0.045120000000     0.352440000000     0.0406417  
H123     H      0.838410000000     0.040630000000     0.371480000000     0.0447634  
H124     H      0.840350000000     0.965280000000     0.287290000000     0.0442819  
H125     H      0.776700000000     0.981300000000     0.287820000000     0.0407851  
H126     H      0.775820000000     0.019930000000     0.371900000000     0.0413283  
H127     H      0.903890000000     0.965880000000     0.304810000000     0.0406231  
H128     H      0.901530000000     0.010710000000     0.374210000000     0.0463664  
H129     H      0.776510000000     0.045510000000     0.340220000000     0.0463575  
H130     H      0.778740000000     0.956310000000     0.319930000000     0.0454716  
H131     H      0.631340000000     0.984120000000     0.099370000000     0.0467814  
H132     H      0.694640000000     0.037790000000     0.094290000000     0.0409055  
H133     H      0.713870000000     0.040330000000     0.157690000000     0.0446732  
H134     H      0.638870000000     0.956020000000     0.161270000000     0.0442748  
H135     H      0.635670000000     0.977620000000     0.222750000000     0.0417386  
H136     H      0.715550000000     0.024000000000     0.222580000000     0.0412589  
H137     H      0.657710000000     0.953180000000     0.098240000000     0.0408818  
H138     H      0.720080000000     0.006060000000     0.095790000000     0.0451297  
H139     H      0.681520000000     0.046090000000     0.219670000000     0.0452347  
H140     H      0.669720000000     0.955370000000     0.223230000000     0.04615    
H141     H      0.442350000000     0.041270000000     0.307620000000     0.0437586  
H142     H      0.443240000000     0.958710000000     0.306230000000     0.0438813  
H143     H      0.506860000000     0.944020000000     0.325370000000     0.0440755  
H144     H      0.505250000000     0.056950000000     0.325230000000     0.0445081  
H145     H      0.567740000000     0.042040000000     0.302490000000     0.0439884  
H146     H      0.569310000000     0.960420000000     0.344810000000     0.0447062  
H147     H      0.443950000000     0.040470000000     0.348300000000     0.0447614  
H148     H      0.444530000000     0.958030000000     0.346930000000     0.0432345  
H149     H      0.568930000000     0.959940000000     0.304100000000     0.043164   
H150     H      0.568460000000     0.043300000000     0.343190000000     0.0437494  
H151     H      0.235200000000     0.047660000000     0.319120000000     0.0458955  
H152     H      0.235610000000     0.984440000000     0.372030000000     0.0410367  
H153     H      0.172130000000     0.966800000000     0.372270000000     0.0442696  
H154     H      0.173110000000     0.041290000000     0.287300000000     0.044744   
H155     H      0.109840000000     0.044130000000     0.305550000000     0.0408335  
H156     H      0.109050000000     0.965250000000     0.353850000000     0.0405585  
H157     H      0.235980000000     0.022030000000     0.287480000000     0.0411079  
H158     H      0.233700000000     0.958700000000     0.340530000000     0.0457646  
H159     H      0.110560000000     0.999890000000     0.375200000000     0.0456666  
H160     H      0.111030000000     0.009530000000     0.284130000000     0.0461522  
H161     H      0.327630000000     0.953730000000     0.224250000000     0.0454005  
H162     H      0.379760000000     0.017290000000     0.223330000000     0.0413455  
H163     H      0.376210000000     0.036810000000     0.160440000000     0.0446681  
H164     H      0.292330000000     0.961300000000     0.164090000000     0.0442348  
H165     H      0.307100000000     0.960260000000     0.099830000000     0.0407092  
H166     H      0.354180000000     0.039810000000     0.098460000000     0.0407219  
H167     H      0.295800000000     0.978890000000     0.227440000000     0.0407905  
H168     H      0.348150000000     0.042910000000     0.223830000000     0.0461687  
H169     H      0.376210000000     0.005590000000     0.098090000000     0.0463694  
H170     H      0.285540000000     0.994650000000     0.102860000000     0.0454991  
H171     H      0.319100000000     0.959430000000     0.430960000000     0.0439143  
H172     H      0.316120000000     0.042400000000     0.431910000000     0.0443547  
H173     H      0.330830000000     0.057000000000     0.496460000000     0.0445668  
H174     H      0.333110000000     0.944070000000     0.494560000000     0.0440388  
H175     H      0.306070000000     0.958310000000     0.555460000000     0.043523   
H176     H      0.346310000000     0.040850000000     0.560090000000     0.0450205  
H177     H      0.359550000000     0.961410000000     0.434590000000     0.0442306  
H178     H      0.356650000000     0.043360000000     0.435280000000     0.0433779  
H179     H      0.305770000000     0.040260000000     0.556980000000     0.0433762  
H180     H      0.346600000000     0.957790000000     0.558870000000     0.0435249  
H181     H      0.370510000000     0.991990000000     0.890620000000     0.0461194  
H182     H      0.300060000000     0.035150000000     0.893030000000     0.0407059  
H183     H      0.282000000000     0.034200000000     0.829650000000     0.0447147  
H184     H      0.367930000000     0.960960000000     0.828190000000     0.0443476  
H185     H      0.367540000000     0.980690000000     0.765430000000     0.041082   
H186     H      0.282640000000     0.017190000000     0.765950000000     0.0410515  
H187     H      0.349570000000     0.957090000000     0.891260000000     0.0404934  
H188     H      0.279440000000     0.000130000000     0.890920000000     0.0458825  
H189     H      0.313930000000     0.043140000000     0.767760000000     0.0457521  
H190     H      0.336450000000     0.954470000000     0.766360000000     0.0459968  
H191     H      0.096580000000     0.982510000000     0.707150000000     0.0455392  
H192     H      0.094170000000     0.035130000000     0.643500000000     0.0416546  
H193     H      0.157010000000     0.035750000000     0.624120000000     0.0448805  
H194     H      0.158950000000     0.952240000000     0.700210000000     0.0443377  
H195     H      0.221750000000     0.972320000000     0.702030000000     0.0410875  
H196     H      0.220470000000     0.018060000000     0.621650000000     0.0418313  
H197     H      0.095530000000     0.950890000000     0.681530000000     0.041215   
H198     H      0.095600000000     0.003450000000     0.617970000000     0.0460919  
H199     H      0.218770000000     0.040580000000     0.655540000000     0.0459182  
H200     H      0.220950000000     0.949910000000     0.668030000000     0.04541    
H201     H      0.642860000000     0.043570000000     0.555280000000     0.0434284  
H202     H      0.640730000000     0.961170000000     0.554500000000     0.0446056  
H203     H      0.665320000000     0.945350000000     0.493570000000     0.0441272  
H204     H      0.666060000000     0.058290000000     0.493410000000     0.0444455  
H205     H      0.648340000000     0.042570000000     0.429790000000     0.0446943  
H206     H      0.690030000000     0.960680000000     0.432200000000     0.0440089  
H207     H      0.683440000000     0.042510000000     0.557460000000     0.0441099  
H208     H      0.681290000000     0.959940000000     0.557030000000     0.0436422  
H209     H      0.649430000000     0.959910000000     0.429950000000     0.0435119  
H210     H      0.688940000000     0.043030000000     0.431690000000     0.0434507  
H211     H      0.428560000000     0.042610000000     0.643050000000     0.0435797  
H212     H      0.428320000000     0.959960000000     0.640230000000     0.0446692  
H213     H      0.490790000000     0.943550000000     0.659280000000     0.0441023  
H214     H      0.492060000000     0.056470000000     0.661440000000     0.044536   
H215     H      0.553920000000     0.040400000000     0.638530000000     0.0444502  
H216     H      0.553850000000     0.957750000000     0.678870000000     0.0440471  
H217     H      0.429590000000     0.040990000000     0.683740000000     0.043944   
H218     H      0.429070000000     0.958700000000     0.680930000000     0.0434834  
H219     H      0.553110000000     0.958150000000     0.638150000000     0.0433154  
H220     H      0.554930000000     0.040510000000     0.679240000000     0.0438563  
H221     H      0.887190000000     0.985200000000     0.619170000000     0.0458349  
H222     H      0.889230000000     0.036130000000     0.684230000000     0.0417006  
H223     H      0.825590000000     0.037280000000     0.702360000000     0.04483    
H224     H      0.824340000000     0.955980000000     0.623910000000     0.044394   
H225     H      0.761890000000     0.976830000000     0.621300000000     0.0415251  
H226     H      0.761790000000     0.020070000000     0.703050000000     0.0415326  
H227     H      0.886910000000     0.952940000000     0.644010000000     0.041456   
H228     H      0.886510000000     0.003850000000     0.708880000000     0.0457711  
H229     H      0.763900000000     0.043410000000     0.669750000000     0.0454841  
H230     H      0.762240000000     0.953160000000     0.654430000000     0.0457847  
H231     H      0.608590000000     0.996750000000     0.890480000000     0.0442203  
H232     H      0.672940000000     0.946610000000     0.889250000000     0.0407915  
H233     H      0.691920000000     0.949320000000     0.825740000000     0.044483   
H234     H      0.614190000000     0.031150000000     0.828550000000     0.0444401  
H235     H      0.613870000000     0.015290000000     0.763760000000     0.0415358  
H236     H      0.694820000000     0.970760000000     0.764170000000     0.0412449  
H237     H      0.632500000000     0.029680000000     0.891490000000     0.0406608  
H238     H      0.698150000000     0.978480000000     0.887530000000     0.0469687  
H239     H      0.661120000000     0.947990000000     0.762780000000     0.0457316  
H240     H      0.647170000000     0.038310000000     0.767730000000     0.0457161  
H241     H      0.380370000000     0.769840000000     0.985280000000     0.0412957  
H242     H      0.327380000000     0.769950000000     0.047870000000     0.0451803  
H243     H      0.292210000000     0.830370000000     0.038670000000     0.0442902  
H244     H      0.377210000000     0.832350000000     0.964320000000     0.0446062  
H245     H      0.376650000000     0.895520000000     0.993870000000     0.046283   
H246     H      0.285870000000     0.890720000000     0.003760000000     0.0454635  
H247     H      0.349340000000     0.769270000000     0.958960000000     0.0465658  
H248     H      0.295800000000     0.766710000000     0.022390000000     0.0409478  
H249     H      0.307060000000     0.894940000000     0.038270000000     0.0405528  
H250     H      0.355200000000     0.893920000000     0.959300000000     0.0408829  
H251     H      0.108470000000     0.647500000000     0.042170000000     0.0416692  
H252     H      0.109080000000     0.712040000000     0.990890000000     0.0454969  
H253     H      0.170210000000     0.705330000000     0.957790000000     0.0446303  
H254     H      0.170830000000     0.627120000000     0.039340000000     0.0445593  
H255     H      0.232770000000     0.657260000000     0.042540000000     0.0461091  
H256     H      0.232050000000     0.672620000000     0.952200000000     0.0452072  
H257     H      0.108170000000     0.622500000000     0.010030000000     0.0460349  
H258     H      0.106390000000     0.687250000000     0.958710000000     0.04153    
H259     H      0.233910000000     0.705970000000     0.975490000000     0.0412852  
H260     H      0.233340000000     0.624270000000     0.018710000000     0.0416905  
H261     H      0.440860000000     0.684260000000     0.043440000000     0.0440786  
H262     H      0.442160000000     0.683970000000     0.960840000000     0.0436275  
H263     H      0.505010000000     0.664270000000     0.946700000000     0.0443628  
H264     H      0.503220000000     0.663140000000     0.059710000000     0.0442436  
H265     H      0.566170000000     0.682850000000     0.045910000000     0.0433881  
H266     H      0.567360000000     0.644130000000     0.962350000000     0.0435913  
H267     H      0.440770000000     0.643570000000     0.043600000000     0.0435895  
H268     H      0.442320000000     0.643290000000     0.961070000000     0.0445171  
H269     H      0.567610000000     0.684800000000     0.963550000000     0.0439156  
H270     H      0.565660000000     0.642180000000     0.045080000000     0.0446049  
H271     H      0.714810000000     0.764130000000     0.985010000000     0.0409377  
H272     H      0.662880000000     0.767210000000     0.048800000000     0.0455711  
H273     H      0.629290000000     0.827800000000     0.039090000000     0.0443205  
H274     H      0.712900000000     0.826580000000     0.963180000000     0.0444679  
H275     H      0.714370000000     0.890380000000     0.992260000000     0.0458433  
H276     H      0.623690000000     0.887610000000     0.003710000000     0.0459018  
H277     H      0.683070000000     0.763550000000     0.959550000000     0.0458838  
H278     H      0.630930000000     0.763990000000     0.023800000000     0.04144    
H279     H      0.645640000000     0.891610000000     0.037770000000     0.0405244  
H280     H      0.692410000000     0.889040000000     0.958010000000     0.0406202  
H281     H      0.899460000000     0.643900000000     0.963010000000     0.0415409  
H282     H      0.897580000000     0.708760000000     0.013790000000     0.0453638  
H283     H      0.837440000000     0.700240000000     0.048200000000     0.0444519  
H284     H      0.837760000000     0.621600000000     0.967070000000     0.0446411  
H285     H      0.774920000000     0.649870000000     0.964790000000     0.0463558  
H286     H      0.776690000000     0.665510000000     0.055050000000     0.0451606  
H287     H      0.901210000000     0.619170000000     0.995300000000     0.0462216  
H288     H      0.901760000000     0.684380000000     0.046130000000     0.0414888  
H289     H      0.773630000000     0.698880000000     0.031930000000     0.0413916  
H290     H      0.775510000000     0.617100000000     0.988910000000     0.0415917  
H291     H      0.312670000000     0.563340000000     0.954830000000     0.0443063  
H292     H      0.314740000000     0.561290000000     0.037740000000     0.0438355  
H293     H      0.328620000000     0.496950000000     0.050910000000     0.0441949  
H294     H      0.327290000000     0.499340000000     0.937910000000     0.0444167  
H295     H      0.301960000000     0.438170000000     0.952200000000     0.0433458  
H296     H      0.342340000000     0.433300000000     0.034820000000     0.0438402  
H297     H      0.353170000000     0.559760000000     0.954060000000     0.0434365  
H298     H      0.355190000000     0.557510000000     0.036200000000     0.0442318  
H299     H      0.301810000000     0.436620000000     0.034170000000     0.0437333  
H300     H      0.342490000000     0.435120000000     0.951670000000     0.0449439  
H301     H      0.219660000000     0.289980000000     0.018310000000     0.041365   
H302     H      0.215220000000     0.336030000000     0.949850000000     0.0457717  
H303     H      0.152950000000     0.366290000000     0.955110000000     0.0446826  
H304     H      0.157040000000     0.291270000000     0.039510000000     0.0444522  
H305     H      0.094110000000     0.283360000000     0.010480000000     0.0454353  
H306     H      0.092040000000     0.372080000000     0.987930000000     0.0460128  
H307     H      0.218600000000     0.324000000000     0.040630000000     0.0454846  
H308     H      0.216530000000     0.370020000000     0.972210000000     0.0419383  
H309     H      0.090270000000     0.345860000000     0.956830000000     0.0415366  
H310     H      0.093520000000     0.309420000000     0.041760000000     0.0415167  
H311     H      0.366970000000     0.228720000000     0.005660000000     0.0413318  
H312     H      0.312300000000     0.225700000000     0.944360000000     0.0454417  
H313     H      0.281000000000     0.163300000000     0.954330000000     0.0444171  
H314     H      0.368200000000     0.166120000000     0.026050000000     0.0445957  
H315     H      0.370580000000     0.103230000000     0.995900000000     0.0465853  
H316     H      0.279390000000     0.102510000000     0.989180000000     0.0457283  
H317     H      0.336530000000     0.227430000000     0.032640000000     0.0464296  
H318     H      0.281390000000     0.227120000000     0.970810000000     0.0408791  
H319     H      0.299600000000     0.099740000000     0.953940000000     0.0405646  
H320     H      0.350310000000     0.103300000000     0.031220000000     0.0408206  
H321     H      0.639130000000     0.430500000000     0.046030000000     0.0434379  
H322     H      0.635390000000     0.434530000000     0.963960000000     0.0442155  
H323     H      0.659420000000     0.495810000000     0.950150000000     0.0443338  
H324     H      0.664660000000     0.491560000000     0.062980000000     0.0442301  
H325     H      0.648310000000     0.556560000000     0.050610000000     0.0435779  
H326     H      0.684930000000     0.555710000000     0.966160000000     0.0438803  
H327     H      0.679670000000     0.427950000000     0.044380000000     0.0438716  
H328     H      0.675910000000     0.432050000000     0.961660000000     0.0440237  
H329     H      0.644420000000     0.558540000000     0.967960000000     0.0447176  
H330     H      0.688810000000     0.553720000000     0.048440000000     0.0435582  
H331     H      0.553020000000     0.347790000000     0.948590000000     0.0438061  
H332     H      0.550310000000     0.351230000000     0.031080000000     0.0443465  
H333     H      0.487320000000     0.333530000000     0.045240000000     0.0441913  
H334     H      0.489740000000     0.328080000000     0.932360000000     0.044394   
H335     H      0.426610000000     0.350400000000     0.945580000000     0.0433982  
H336     H      0.425300000000     0.314250000000     0.030260000000     0.0439524  
H337     H      0.551890000000     0.307150000000     0.950250000000     0.0437555  
H338     H      0.549060000000     0.310590000000     0.032690000000     0.0438976  
H339     H      0.426080000000     0.354860000000     0.027810000000     0.0443731  
H340     H      0.425920000000     0.309770000000     0.947570000000     0.0438398  
H341     H      0.883640000000     0.373000000000     0.001350000000     0.045744   
H342     H      0.884510000000     0.303090000000     0.044810000000     0.0406479  
H343     H      0.820970000000     0.284270000000     0.041140000000     0.0443663  
H344     H      0.822340000000     0.370440000000     0.968080000000     0.0445153  
H345     H      0.758790000000     0.369750000000     0.985210000000     0.0415821  
H346     H      0.758240000000     0.284430000000     0.020830000000     0.0409804  
H347     H      0.885110000000     0.352150000000     0.966390000000     0.0409425  
H348     H      0.883400000000     0.281890000000     0.010050000000     0.0458077  
H349     H      0.758240000000     0.315510000000     0.047140000000     0.0454129  
H350     H      0.761410000000     0.338990000000     0.958670000000     0.0461257  
H351     H      0.704270000000     0.100720000000     0.979930000000     0.0456317  
H352     H      0.639730000000     0.097070000000     0.031430000000     0.0420971  
H353     H      0.617430000000     0.158730000000     0.029720000000     0.0447027  
H354     H      0.695860000000     0.162190000000     0.948530000000     0.0446269  
H355     H      0.695010000000     0.225260000000     0.967940000000     0.0416411  
H356     H      0.613030000000     0.221920000000     0.010360000000     0.041722   
H357     H      0.679330000000     0.097640000000     0.947910000000     0.0415982  
H358     H      0.614900000000     0.096290000000     0.999180000000     0.046212   
H359     H      0.645660000000     0.221220000000     0.034650000000     0.0462611  
H360     H      0.661810000000     0.223580000000     0.944470000000     0.0451295  
N1       N      0.006890000000     0.096090000000     0.329820000000    -0.166519   
N2       N      0.009970000000     0.249030000000     0.335760000000    -0.166428   
N3       N      0.000030000000     0.340220000000     0.245730000000    -0.16608    
N4       N      0.989400000000     0.338470000000     0.092750000000    -0.165808   
N5       N      0.001940000000     0.429510000000     0.336420000000    -0.166559   
N6       N      0.997190000000     0.582610000000     0.333720000000    -0.166498   
N7       N      0.004100000000     0.915370000000     0.329280000000    -0.166565   
N8       N      0.991140000000     0.763100000000     0.337930000000    -0.166321   
N9       N      0.997880000000     0.673620000000     0.245150000000    -0.166765   
N10      N      0.004830000000     0.667470000000     0.092340000000    -0.166554   
N11      N      0.009860000000     0.338470000000     0.426580000000    -0.165834   
N12      N      0.006180000000     0.332210000000     0.580070000000    -0.165983   
N13      N      0.991590000000     0.319050000000     0.760290000000    -0.165926   
N14      N      0.983660000000     0.315840000000     0.913380000000    -0.165539   
N15      N      0.992500000000     0.083120000000     0.664300000000    -0.166476   
N16      N      0.997790000000     0.235970000000     0.664800000000    -0.166865   
N17      N      0.990980000000     0.669930000000     0.425690000000    -0.166589   
N18      N      0.992640000000     0.658430000000     0.578570000000    -0.166647   
N19      N      0.999890000000     0.416330000000     0.676050000000    -0.166563   
N20      N      0.997650000000     0.569510000000     0.671910000000    -0.166562   
N21      N      0.991560000000     0.903030000000     0.663100000000    -0.166388   
N22      N      0.997130000000     0.750210000000     0.667310000000    -0.166665   
N23      N      0.002000000000     0.663420000000     0.759090000000    -0.166934   
N24      N      0.003400000000     0.665540000000     0.912110000000    -0.166602   
N25      N      0.763020000000     0.000570000000     0.329780000000    -0.166521   
N26      N      0.915730000000     0.006070000000     0.328510000000    -0.166358   
N27      N      0.675290000000     0.001330000000     0.236050000000    -0.16618    
N28      N      0.675160000000     0.995230000000     0.082920000000    -0.166517   
N29      N      0.582620000000     0.001630000000     0.323780000000    -0.166241   
N30      N      0.429520000000     0.999470000000     0.327720000000    -0.16667    
N31      N      0.096190000000     0.004760000000     0.329600000000    -0.166288   
N32      N      0.249050000000     0.002910000000     0.329670000000    -0.16648    
N33      N      0.330080000000     0.000170000000     0.085890000000    -0.166111   
N34      N      0.338400000000     0.998240000000     0.238640000000    -0.167208   
N35      N      0.325530000000     0.999040000000     0.571840000000    -0.167128   
N36      N      0.338620000000     0.001840000000     0.419200000000    -0.166519   
N37      N      0.325060000000     0.999020000000     0.752450000000    -0.167155   
N38      N      0.324980000000     0.995890000000     0.905390000000    -0.167268   
N39      N      0.234430000000     0.995590000000     0.661850000000    -0.166969   
N40      N      0.081520000000     0.992870000000     0.662690000000    -0.16672    
N41      N      0.669770000000     0.001470000000     0.416890000000    -0.166199   
N42      N      0.661340000000     0.001730000000     0.570080000000    -0.166074   
N43      N      0.567950000000     0.999010000000     0.658600000000    -0.166821   
N44      N      0.414890000000     0.000640000000     0.662140000000    -0.16632    
N45      N      0.748490000000     0.998570000000     0.662080000000    -0.166712   
N46      N      0.901410000000     0.994080000000     0.664240000000    -0.166586   
N47      N      0.654990000000     0.994040000000     0.750680000000    -0.166838   
N48      N      0.653880000000     0.988260000000     0.903670000000    -0.166718   
N49      N      0.330410000000     0.907700000000     0.998150000000    -0.166461   
N50      N      0.338560000000     0.754960000000     0.003640000000    -0.166621   
N51      N      0.246980000000     0.665060000000     0.997240000000    -0.166454   
N52      N      0.094080000000     0.667510000000     0.000870000000    -0.166348   
N53      N      0.580710000000     0.663190000000     0.004470000000    -0.166444   
N54      N      0.427520000000     0.663780000000     0.002010000000    -0.166436   
N55      N      0.668480000000     0.903590000000     0.997150000000    -0.166185   
N56      N      0.673110000000     0.750760000000     0.004840000000    -0.166617   
N57      N      0.761190000000     0.657700000000     0.010270000000    -0.166345   
N58      N      0.913950000000     0.664700000000     0.003890000000    -0.166179   
N59      N      0.321550000000     0.421780000000     0.992950000000    -0.166324   
N60      N      0.334900000000     0.574470000000     0.996040000000    -0.166319   
N61      N      0.078520000000     0.327510000000     0.999740000000    -0.166187   
N62      N      0.231470000000     0.330240000000     0.994740000000    -0.16637    
N63      N      0.325050000000     0.088250000000     0.993160000000    -0.166323   
N64      N      0.323940000000     0.241200000000     0.988310000000    -0.166418   
N65      N      0.667460000000     0.570150000000     0.008580000000    -0.166403   
N66      N      0.656900000000     0.417250000000     0.003310000000    -0.166408   
N67      N      0.411960000000     0.332370000000     0.987720000000    -0.166273   
N68      N      0.565070000000     0.328820000000     0.991170000000    -0.166264   
N69      N      0.745240000000     0.326900000000     0.002310000000    -0.166632   
N70      N      0.898110000000     0.327430000000     0.005580000000    -0.166667   
N71      N      0.653810000000     0.236990000000     0.989910000000    -0.166237   
N72      N      0.660380000000     0.083960000000     0.989990000000    -0.166273   
O1       O      0.611310000000     0.327280000000     0.968510000000    -0.395299   
O2       O      0.702240000000     0.331910000000     0.975050000000    -0.398062   
O3       O      0.659780000000     0.283450000000     0.968540000000    -0.395057   
O4       O      0.654900000000     0.374440000000     0.975160000000    -0.397694   
O5       O      0.656700000000     0.370620000000     0.025330000000    -0.394839   
O6       O      0.649570000000     0.279820000000     0.017690000000    -0.397939   
O7       O      0.699060000000     0.320920000000     0.024070000000    -0.395314   
O8       O      0.608250000000     0.328460000000     0.018760000000    -0.398216   
O9       O      0.368060000000     0.333640000000     0.013870000000    -0.400744   
O10      O      0.277380000000     0.326710000000     0.017500000000    -0.397354   
O11      O      0.326920000000     0.285260000000     0.014160000000    -0.399097   
O12      O      0.320080000000     0.376250000000     0.016970000000    -0.396583   
O13      O      0.322240000000     0.377710000000     0.966680000000    -0.39715    
O14      O      0.317720000000     0.286450000000     0.964690000000    -0.395108   
O15      O      0.274910000000     0.334810000000     0.967880000000    -0.396044   
O16      O      0.366280000000     0.330450000000     0.963650000000    -0.393102   
O17      O      0.715720000000     0.663140000000     0.033670000000    -0.394844   
O18      O      0.624530000000     0.660340000000     0.030870000000    -0.397589   
O19      O      0.670810000000     0.615330000000     0.033440000000    -0.393114   
O20      O      0.668060000000     0.706870000000     0.030850000000    -0.396108   
O21      O      0.676790000000     0.705240000000     0.981310000000    -0.396653   
O22      O      0.668080000000     0.614550000000     0.983170000000    -0.399546   
O23      O      0.626400000000     0.663510000000     0.980650000000    -0.395265   
O24      O      0.717290000000     0.655020000000     0.984020000000    -0.397627   
O25      O      0.292430000000     0.669870000000     0.973610000000    -0.395222   
O26      O      0.383490000000     0.663110000000     0.975760000000    -0.397345   
O27      O      0.335100000000     0.620370000000     0.972580000000    -0.395179   
O28      O      0.342020000000     0.711400000000     0.976920000000    -0.397438   
O29      O      0.333550000000     0.709190000000     0.026490000000    -0.395775   
O30      O      0.337920000000     0.618080000000     0.022810000000    -0.398577   
O31      O      0.381990000000     0.665170000000     0.026050000000    -0.395733   
O32      O      0.290910000000     0.660860000000     0.023110000000    -0.398954   
O33      O      0.612710000000     0.973630000000     0.660100000000    -0.396453   
O34      O      0.703930000000     0.973850000000     0.657300000000    -0.398279   
O35      O      0.660200000000     0.971620000000     0.704810000000    -0.398148   
O36      O      0.657620000000     0.975430000000     0.613820000000    -0.400951   
O37      O      0.661490000000     0.025550000000     0.615960000000    -0.393573   
O38      O      0.653460000000     0.021400000000     0.707250000000    -0.395146   
O39      O      0.703620000000     0.023370000000     0.666120000000    -0.394565   
O40      O      0.612700000000     0.023920000000     0.658360000000    -0.397408   
O41      O      0.369440000000     0.025000000000     0.664240000000    -0.394607   
O42      O      0.278170000000     0.022070000000     0.658680000000    -0.396392   
O43      O      0.320310000000     0.023600000000     0.707610000000    -0.39666    
O44      O      0.325980000000     0.023880000000     0.616610000000    -0.399205   
O45      O      0.323510000000     0.973620000000     0.616650000000    -0.396143   
O46      O      0.328820000000     0.974020000000     0.707920000000    -0.398508   
O47      O      0.280000000000     0.972280000000     0.665570000000    -0.397384   
O48      O      0.370810000000     0.974860000000     0.660240000000    -0.401081   
O49      O      0.293030000000     0.976900000000     0.333410000000    -0.397564   
O50      O      0.384260000000     0.974710000000     0.326900000000    -0.394466   
O51      O      0.341170000000     0.976400000000     0.374900000000    -0.401191   
O52      O      0.334700000000     0.974690000000     0.284090000000    -0.397938   
O53      O      0.343060000000     0.024270000000     0.282540000000    -0.397091   
O54      O      0.337700000000     0.026590000000     0.373900000000    -0.395394   
O55      O      0.385230000000     0.024910000000     0.330160000000    -0.398975   
O56      O      0.294370000000     0.026460000000     0.324900000000    -0.397334   
O57      O      0.718620000000     0.025990000000     0.331490000000    -0.397447   
O58      O      0.627620000000     0.026780000000     0.323070000000    -0.394736   
O59      O      0.669630000000     0.026570000000     0.372130000000    -0.397535   
O60      O      0.677980000000     0.026520000000     0.280970000000    -0.394218   
O61      O      0.670990000000     0.976710000000     0.280700000000    -0.399786   
O62      O      0.673110000000     0.976370000000     0.372000000000    -0.396917   
O63      O      0.627150000000     0.976600000000     0.326830000000    -0.400125   
O64      O      0.718210000000     0.976170000000     0.324550000000    -0.398028   
O65      O      0.974650000000     0.662150000000     0.715850000000    -0.399134   
O66      O      0.969570000000     0.659220000000     0.624660000000    -0.396464   
O67      O      0.972260000000     0.614330000000     0.671490000000    -0.396477   
O68      O      0.972200000000     0.705630000000     0.670240000000    -0.399035   
O69      O      0.022250000000     0.705430000000     0.665220000000    -0.396999   
O70      O      0.022480000000     0.614220000000     0.668970000000    -0.399401   
O71      O      0.019780000000     0.658250000000     0.622030000000    -0.399879   
O72      O      0.024840000000     0.660330000000     0.713160000000    -0.397221   
O73      O      0.974680000000     0.372020000000     0.671570000000    -0.400374   
O74      O      0.973630000000     0.281240000000     0.663940000000    -0.398436   
O75      O      0.970440000000     0.324110000000     0.713700000000    -0.39663    
O76      O      0.978050000000     0.330140000000     0.622880000000    -0.399013   
O77      O      0.028150000000     0.328320000000     0.626690000000    -0.39324    
O78      O      0.020480000000     0.321440000000     0.717880000000    -0.39536    
O79      O      0.023510000000     0.279900000000     0.670270000000    -0.397588   
O80      O      0.024810000000     0.371190000000     0.675380000000    -0.395003   
O81      O      0.017250000000     0.670350000000     0.381790000000    -0.400549   
O82      O      0.020680000000     0.678200000000     0.291000000000    -0.397563   
O83      O      0.017150000000     0.719170000000     0.341000000000    -0.399485   
O84      O      0.020710000000     0.628370000000     0.333200000000    -0.397315   
O85      O      0.970520000000     0.626380000000     0.335600000000    -0.397382   
O86      O      0.967760000000     0.717690000000     0.331800000000    -0.394588   
O87      O      0.971220000000     0.669530000000     0.288690000000    -0.397659   
O88      O      0.967080000000     0.673150000000     0.380040000000    -0.394443   
O89      O      0.983330000000     0.340150000000     0.382890000000    -0.40009    
O90      O      0.978540000000     0.334960000000     0.292070000000    -0.397453   
O91      O      0.983420000000     0.292520000000     0.340670000000    -0.398318   
O92      O      0.978730000000     0.383570000000     0.335580000000    -0.396512   
O93      O      0.028930000000     0.385940000000     0.337270000000    -0.397083   
O94      O      0.032610000000     0.294910000000     0.330620000000    -0.394377   
O95      O      0.027820000000     0.344280000000     0.288830000000    -0.393426   
O96      O      0.033480000000     0.337760000000     0.380440000000    -0.390594   
O97      O      0.942760000000     0.352330000000     0.002790000000    -0.39759    
O98      O      0.033510000000     0.351510000000     0.994520000000    -0.396909   
O99      O      0.982950000000     0.346140000000     0.954640000000    -0.397489   
O100     O      0.993000000000     0.357750000000     0.044980000000    -0.392761   
O101     O      0.986370000000     0.308330000000     0.051550000000    -0.397893   
O102     O      0.990270000000     0.296770000000     0.960850000000    -0.39243    
O103     O      0.034130000000     0.303160000000     0.008350000000    -0.395629   
O104     O      0.942770000000     0.302110000000     0.006350000000    -0.395404   
O105     O      0.958330000000     0.690250000000     0.008180000000    -0.393291   
O106     O      0.048960000000     0.691580000000     0.995780000000    -0.393181   
O107     O      0.997520000000     0.690330000000     0.956670000000    -0.394659   
O108     O      0.009790000000     0.691570000000     0.047250000000    -0.394994   
O109     O      0.999470000000     0.642380000000     0.047880000000    -0.395458   
O110     O      0.009470000000     0.641500000000     0.957050000000    -0.39529    
O111     O      0.049720000000     0.642660000000     0.007340000000    -0.395946   
O112     O      0.959060000000     0.641120000000     0.997590000000    -0.394942   
O113     O      0.051700000000     0.006140000000     0.304200000000    -0.397388   
O114     O      0.960510000000     0.005370000000     0.303640000000    -0.397301   
O115     O      0.007490000000     0.051560000000     0.304140000000    -0.395521   
O116     O      0.004610000000     0.960040000000     0.303850000000    -0.395981   
O117     O      0.005850000000     0.960090000000     0.354210000000    -0.399495   
O118     O      0.005640000000     0.051210000000     0.354480000000    -0.398986   
O119     O      0.960190000000     0.007130000000     0.353990000000    -0.397723   
O120     O      0.051400000000     0.004120000000     0.354540000000    -0.397396   
O121     O      0.945920000000     0.988050000000     0.639430000000    -0.395136   
O122     O      0.036570000000     0.998610000000     0.638680000000    -0.395587   
O123     O      0.996660000000     0.947910000000     0.638680000000    -0.394727   
O124     O      0.985980000000     0.038670000000     0.639460000000    -0.39465    
O125     O      0.997600000000     0.038140000000     0.688400000000    -0.39524    
O126     O      0.985900000000     0.947630000000     0.687820000000    -0.395517   
O127     O      0.037030000000     0.987050000000     0.687640000000    -0.394635   
O128     O      0.946390000000     0.998800000000     0.688570000000    -0.394366   
O129     O      0.638370000000     0.038360000000     0.998030000000    -0.397322   
O130     O      0.641560000000     0.947210000000     0.996760000000    -0.396903   
O131     O      0.645550000000     0.991270000000     0.041520000000    -0.400434   
O132     O      0.634280000000     0.994020000000     0.950950000000    -0.395156   
O133     O      0.683970000000     0.989230000000     0.945010000000    -0.398094   
O134     O      0.694690000000     0.999880000000     0.035340000000    -0.392706   
O135     O      0.691720000000     0.949210000000     0.993190000000    -0.394906   
O136     O      0.686820000000     0.040180000000     0.984820000000    -0.394754   
O137     O      0.300970000000     0.042930000000     0.994250000000    -0.395644   
O138     O      0.303740000000     0.951580000000     0.998440000000    -0.396012   
O139     O      0.303640000000     0.997610000000     0.042020000000    -0.397509   
O140     O      0.301020000000     0.996940000000     0.950710000000    -0.397773   
O141     O      0.351310000000     0.996560000000     0.949350000000    -0.398806   
O142     O      0.353830000000     0.000810000000     0.040480000000    -0.397858   
O143     O      0.353920000000     0.953130000000     0.995370000000    -0.398488   
O144     O      0.351260000000     0.044270000000     0.994480000000    -0.398027   


