data_structure

_audit_creation_method RASPA-1.0
_audit_creation_date 2023-6-4
_audit_author_name 'Poobodin Mano'

_cell_length_a    40.1166
_cell_length_b    40.3148
_cell_length_c    29.1774
_cell_angle_alpha 89.9989
_cell_angle_beta  89.9989
_cell_angle_gamma 94.8487
_cell_volume      47019.5

_symmetry_cell_setting          triclinic
_symmetry_space_group_name_Hall 'P 1'
_symmetry_space_group_name_H-M  'P 1'
_symmetry_Int_Tables_number     1

_symmetry_equiv_pos_as_xyz 'x,y,z'

loop_
_atom_site_label
_atom_site_type_symbol
_atom_site_fract_x
_atom_site_fract_y
_atom_site_fract_z
_atom_site_charge
C1       C      0.050710000000     0.455800000000     0.011010000000     0.394015   
C2       C      0.449450000000     0.034500000000     0.011010000000     0.393927   
C3       C      0.040780000000     0.049950000000     0.011080000000     0.408525   
C4       C      0.459370000000     0.440350000000     0.011020000000     0.408462   
C5       C      0.045350000000     0.449480000000     0.503270000000     0.395963   
C6       C      0.455340000000     0.040120000000     0.503260000000     0.397405   
C7       C      0.047440000000     0.044120000000     0.504350000000     0.411344   
C8       C      0.450300000000     0.448430000000     0.502170000000     0.411455   
C9       C      0.250070000000     0.245090000000     0.916680000000     0.473755   
C10      C      0.250120000000     0.245140000000     0.090440000000     0.475227   
C11      C      0.293980000000     0.202560000000     0.002880000000     0.455829   
C12      C      0.206170000000     0.287720000000     0.002880000000     0.456006   
C13      C      0.250770000000     0.244260000000     0.416620000000     0.474923   
C14      C      0.251000000000     0.244460000000     0.590480000000     0.475029   
C15      C      0.293930000000     0.201680000000     0.503440000000     0.462384   
C16      C      0.207330000000     0.287610000000     0.503490000000     0.456662   
C17      C      0.273070000000     0.266790000000     0.842120000000    -0.0176534  
C18      C      0.229540000000     0.221200000000     0.665020000000    -0.0176182  
C19      C      0.272160000000     0.267820000000     0.665090000000    -0.0176288  
C20      C      0.263040000000     0.257720000000     0.712640000000     0.0121883  
C21      C      0.238260000000     0.231570000000     0.712600000000     0.0120467  
C22      C      0.224570000000     0.218310000000     0.753540000000    -0.0653481  
C23      C      0.227300000000     0.223210000000     0.842070000000    -0.0177631  
C24      C      0.276420000000     0.271220000000     0.753610000000    -0.0654334  
C25      C      0.237510000000     0.232230000000     0.794510000000     0.0121341  
C26      C      0.263160000000     0.257540000000     0.794540000000     0.0121736  
C27      C      0.271500000000     0.268360000000     0.165040000000    -0.0175944  
C28      C      0.227670000000     0.222780000000     0.342020000000    -0.0175639  
C29      C      0.273750000000     0.266030000000     0.342080000000    -0.0176438  
C30      C      0.263460000000     0.257180000000     0.294500000000     0.0120654  
C31      C      0.237680000000     0.232010000000     0.294460000000     0.0121476  
C32      C      0.224430000000     0.218380000000     0.253490000000    -0.0654138  
C33      C      0.228910000000     0.221710000000     0.164980000000    -0.0175671  
C34      C      0.276460000000     0.271120000000     0.253560000000    -0.0653826  
C35      C      0.237920000000     0.231840000000     0.212560000000     0.0121171  
C36      C      0.262730000000     0.257950000000     0.212600000000     0.0120611  
C37      C      0.152720000000     0.307240000000     0.529380000000    -0.0201191  
C38      C      0.095590000000     0.425440000000     0.469690000000    -0.0238724  
C39      C      0.069150000000     0.399270000000     0.536860000000    -0.0238082  
C40      C      0.097750000000     0.380610000000     0.521460000000     0.0135288  
C41      C      0.114180000000     0.396890000000     0.485130000000     0.0136348  
C42      C      0.144430000000     0.386440000000     0.468080000000    -0.0652378  
C43      C      0.187670000000     0.341910000000     0.477360000000    -0.0202413  
C44      C      0.108110000000     0.350470000000     0.538550000000    -0.0651213  
C45      C      0.155990000000     0.357480000000     0.487280000000     0.0127044  
C46      C      0.137160000000     0.338830000000     0.519380000000     0.0125354  
C47      C      0.401650000000     0.419700000000     0.541800000000    -0.0212497  
C48      C      0.314740000000     0.321380000000     0.461040000000    -0.0346274  
C49      C      0.310510000000     0.325900000000     0.541380000000    -0.0346677  
C50      C      0.328300000000     0.356420000000     0.522930000000     0.0185056  
C51      C      0.330830000000     0.353760000000     0.475850000000     0.0179051  
C52      C      0.354370000000     0.373850000000     0.450880000000    -0.0678516  
C53      C      0.406140000000     0.415130000000     0.458980000000    -0.0209624  
C54      C      0.349140000000     0.379320000000     0.547780000000    -0.0680802  
C55      C      0.375010000000     0.396990000000     0.475590000000     0.013937   
C56      C      0.372440000000     0.399650000000     0.522880000000     0.0144012  
C57      C      0.313860000000     0.147890000000     0.476340000000    -0.0198414  
C58      C      0.431260000000     0.089790000000     0.537450000000    -0.0234859  
C59      C      0.405700000000     0.064520000000     0.469040000000    -0.023441   
C60      C      0.387000000000     0.092850000000     0.484680000000     0.0136708  
C61      C      0.402940000000     0.108610000000     0.521810000000     0.0136043  
C62      C      0.392390000000     0.138470000000     0.539410000000    -0.0652697  
C63      C      0.348020000000     0.181730000000     0.530260000000    -0.0197415  
C64      C      0.357070000000     0.103530000000     0.467100000000    -0.0653566  
C65      C      0.363660000000     0.150350000000     0.519800000000     0.0130711  
C66      C      0.345320000000     0.132190000000     0.486730000000     0.0132211  
C67      C      0.169240000000     0.184650000000     0.465810000000    -0.034916   
C68      C      0.080920000000     0.087980000000     0.547630000000    -0.0210861  
C69      C      0.076430000000     0.092480000000     0.464790000000    -0.0213995  
C70      C      0.096080000000     0.121810000000     0.483860000000     0.014477   
C71      C      0.098680000000     0.119250000000     0.531160000000     0.0138514  
C72      C      0.121560000000     0.140120000000     0.556010000000    -0.0677156  
C73      C      0.173700000000     0.180390000000     0.546150000000    -0.0336559  
C74      C      0.116170000000     0.145360000000     0.459100000000    -0.0681783  
C75      C      0.141430000000     0.163880000000     0.531180000000     0.0175246  
C76      C      0.138800000000     0.166430000000     0.484090000000     0.0187268  
C77      C      0.100470000000     0.431370000000     0.975730000000    -0.0241537  
C78      C      0.152430000000     0.308900000000     0.029790000000    -0.0200129  
C79      C      0.187290000000     0.342190000000     0.976160000000    -0.0205959  
C80      C      0.156900000000     0.359350000000     0.988030000000     0.0136912  
C81      C      0.138230000000     0.341430000000     0.020980000000     0.0119331  
C82      C      0.110760000000     0.354680000000     0.042230000000    -0.0645949  
C83      C      0.075000000000     0.405960000000     0.044020000000    -0.0237807  
C84      C      0.146540000000     0.389280000000     0.970140000000    -0.0655918  
C85      C      0.101690000000     0.385690000000     0.026360000000     0.0126781  
C86      C      0.117720000000     0.401410000000     0.989310000000     0.0143233  
C87      C      0.432020000000     0.391510000000     0.969980000000    -0.0213793  
C88      C      0.326880000000     0.309510000000     0.046680000000    -0.0357779  
C89      C      0.331770000000     0.306130000000     0.966130000000    -0.0340093  
C90      C      0.362710000000     0.322930000000     0.985390000000     0.0181849  
C91      C      0.359830000000     0.324840000000     0.032410000000     0.017942   
C92      C      0.381420000000     0.346320000000     0.058480000000    -0.0680075  
C93      C      0.427010000000     0.394710000000     0.052850000000    -0.0212427  
C94      C      0.387340000000     0.342490000000     0.961490000000    -0.0679697  
C95      C      0.406410000000     0.365510000000     0.034830000000     0.0135543  
C96      C      0.409290000000     0.363650000000     0.987480000000     0.014481   
C97      C      0.347710000000     0.181370000000     0.029810000000    -0.0200873  
C98      C      0.399710000000     0.058930000000     0.975700000000    -0.0240944  
C99      C      0.425140000000     0.084310000000     0.044030000000    -0.0237866  
C100     C      0.398460000000     0.104590000000     0.026370000000     0.0127169  
C101     C      0.382440000000     0.088890000000     0.989290000000     0.0142973  
C102     C      0.353640000000     0.101020000000     0.970110000000    -0.065504   
C103     C      0.312870000000     0.148100000000     0.976130000000    -0.0206091  
C104     C      0.389380000000     0.135590000000     0.042250000000    -0.0646249  
C105     C      0.343250000000     0.130940000000     0.988010000000     0.0136706  
C106     C      0.361910000000     0.148840000000     0.020990000000     0.0119985  
C107     C      0.168410000000     0.184140000000     0.966340000000    -0.0345267  
C108     C      0.073070000000     0.095610000000     0.052960000000    -0.0212452  
C109     C      0.068090000000     0.098850000000     0.970090000000    -0.0213866  
C110     C      0.090780000000     0.126720000000     0.987620000000     0.0144894  
C111     C      0.093640000000     0.124850000000     0.034990000000     0.0134951  
C112     C      0.118700000000     0.143940000000     0.058640000000    -0.0678907  
C113     C      0.173300000000     0.180680000000     0.046900000000    -0.0352485  
C114     C      0.112810000000     0.147840000000     0.961660000000    -0.0680707  
C115     C      0.140370000000     0.165340000000     0.032580000000     0.0176731  
C116     C      0.137490000000     0.167310000000     0.985570000000     0.0184834  
C117     C      0.050710000000     0.955800000000     0.011010000000     0.393988   
C118     C      0.449450000000     0.534500000000     0.011010000000     0.393956   
C119     C      0.040780000000     0.549960000000     0.011080000000     0.408494   
C120     C      0.459370000000     0.940350000000     0.011020000000     0.408514   
C121     C      0.045350000000     0.949480000000     0.503270000000     0.395959   
C122     C      0.455340000000     0.540120000000     0.503260000000     0.397446   
C123     C      0.047440000000     0.544120000000     0.504350000000     0.411392   
C124     C      0.450300000000     0.948430000000     0.502170000000     0.411447   
C125     C      0.250070000000     0.745090000000     0.916680000000     0.473766   
C126     C      0.250120000000     0.745140000000     0.090440000000     0.475236   
C127     C      0.293980000000     0.702560000000     0.002880000000     0.456176   
C128     C      0.206170000000     0.787720000000     0.002880000000     0.455789   
C129     C      0.250770000000     0.744260000000     0.416620000000     0.475062   
C130     C      0.251000000000     0.744460000000     0.590480000000     0.475028   
C131     C      0.293930000000     0.701680000000     0.503440000000     0.462392   
C132     C      0.207330000000     0.787610000000     0.503490000000     0.456664   
C133     C      0.273070000000     0.766790000000     0.842120000000    -0.0176547  
C134     C      0.229540000000     0.721200000000     0.665020000000    -0.0176126  
C135     C      0.272170000000     0.767820000000     0.665090000000    -0.0177051  
C136     C      0.263040000000     0.757720000000     0.712640000000     0.0122207  
C137     C      0.238260000000     0.731570000000     0.712600000000     0.0120313  
C138     C      0.224570000000     0.718310000000     0.753540000000    -0.0653414  
C139     C      0.227300000000     0.723210000000     0.842070000000    -0.0177585  
C140     C      0.276420000000     0.771220000000     0.753610000000    -0.0654506  
C141     C      0.237510000000     0.732230000000     0.794510000000     0.0121257  
C142     C      0.263160000000     0.757540000000     0.794540000000     0.0121796  
C143     C      0.271500000000     0.768360000000     0.165040000000    -0.0175918  
C144     C      0.227670000000     0.722780000000     0.342020000000    -0.0175531  
C145     C      0.273760000000     0.766030000000     0.342080000000    -0.0177234  
C146     C      0.263460000000     0.757180000000     0.294500000000     0.0120925  
C147     C      0.237680000000     0.732010000000     0.294460000000     0.0121354  
C148     C      0.224430000000     0.718380000000     0.253490000000    -0.0654104  
C149     C      0.228910000000     0.721710000000     0.164980000000    -0.0175651  
C150     C      0.276460000000     0.771110000000     0.253560000000    -0.0653646  
C151     C      0.237920000000     0.731840000000     0.212560000000     0.012114   
C152     C      0.262730000000     0.757950000000     0.212600000000     0.0120554  
C153     C      0.152720000000     0.807250000000     0.529380000000    -0.0200788  
C154     C      0.095590000000     0.925440000000     0.469690000000    -0.0238708  
C155     C      0.069150000000     0.899280000000     0.536860000000    -0.023732   
C156     C      0.097750000000     0.880610000000     0.521460000000     0.0134828  
C157     C      0.114180000000     0.896880000000     0.485130000000     0.0136442  
C158     C      0.144430000000     0.886440000000     0.468080000000    -0.0652519  
C159     C      0.187670000000     0.841910000000     0.477360000000    -0.0202416  
C160     C      0.108110000000     0.850470000000     0.538550000000    -0.0650998  
C161     C      0.155990000000     0.857480000000     0.487280000000     0.0127083  
C162     C      0.137160000000     0.838830000000     0.519380000000     0.0125165  
C163     C      0.401650000000     0.919700000000     0.541800000000    -0.0212455  
C164     C      0.314750000000     0.821380000000     0.461040000000    -0.0346326  
C165     C      0.310510000000     0.825900000000     0.541380000000    -0.0346651  
C166     C      0.328300000000     0.856420000000     0.522930000000     0.0184983  
C167     C      0.330830000000     0.853760000000     0.475850000000     0.0179087  
C168     C      0.354370000000     0.873850000000     0.450880000000    -0.0678699  
C169     C      0.406140000000     0.915130000000     0.458980000000    -0.0209928  
C170     C      0.349140000000     0.879320000000     0.547780000000    -0.0680858  
C171     C      0.375010000000     0.896980000000     0.475590000000     0.0139491  
C172     C      0.372440000000     0.899640000000     0.522880000000     0.0143918  
C173     C      0.313860000000     0.647900000000     0.476340000000    -0.0197455  
C174     C      0.431260000000     0.589790000000     0.537450000000    -0.0234852  
C175     C      0.405700000000     0.564520000000     0.469040000000    -0.023428   
C176     C      0.387000000000     0.592850000000     0.484680000000     0.0136465  
C177     C      0.402940000000     0.608610000000     0.521810000000     0.013608   
C178     C      0.392390000000     0.638470000000     0.539410000000    -0.0652826  
C179     C      0.348020000000     0.681730000000     0.530260000000    -0.0197473  
C180     C      0.357070000000     0.603530000000     0.467100000000    -0.0653355  
C181     C      0.363660000000     0.650350000000     0.519800000000     0.0130878  
C182     C      0.345320000000     0.632190000000     0.486730000000     0.013167   
C183     C      0.169240000000     0.684650000000     0.465810000000    -0.034915   
C184     C      0.080920000000     0.587980000000     0.547630000000    -0.0210569  
C185     C      0.076430000000     0.592480000000     0.464790000000    -0.0213929  
C186     C      0.096080000000     0.621810000000     0.483860000000     0.0144733  
C187     C      0.098680000000     0.619250000000     0.531160000000     0.0138379  
C188     C      0.121560000000     0.640120000000     0.556010000000    -0.0677121  
C189     C      0.173700000000     0.680390000000     0.546150000000    -0.0336541  
C190     C      0.116170000000     0.645360000000     0.459100000000    -0.0681804  
C191     C      0.141430000000     0.663880000000     0.531180000000     0.01752    
C192     C      0.138800000000     0.666430000000     0.484090000000     0.0187257  
C193     C      0.100470000000     0.931370000000     0.975730000000    -0.0241419  
C194     C      0.152430000000     0.808900000000     0.029790000000    -0.0200254  
C195     C      0.187290000000     0.842190000000     0.976160000000    -0.0206018  
C196     C      0.156900000000     0.859350000000     0.988030000000     0.0136875  
C197     C      0.138230000000     0.841440000000     0.020980000000     0.0119424  
C198     C      0.110760000000     0.854680000000     0.042230000000    -0.0646089  
C199     C      0.075000000000     0.905960000000     0.044020000000    -0.0237858  
C200     C      0.146540000000     0.889270000000     0.970140000000    -0.0655656  
C201     C      0.101690000000     0.885690000000     0.026360000000     0.0126895  
C202     C      0.117720000000     0.901410000000     0.989310000000     0.0142881  
C203     C      0.432020000000     0.891510000000     0.969980000000    -0.0213779  
C204     C      0.326880000000     0.809520000000     0.046680000000    -0.0357422  
C205     C      0.331770000000     0.806130000000     0.966130000000    -0.0340098  
C206     C      0.362710000000     0.822930000000     0.985390000000     0.0181875  
C207     C      0.359830000000     0.824840000000     0.032410000000     0.0179281  
C208     C      0.381420000000     0.846320000000     0.058480000000    -0.0680016  
C209     C      0.427010000000     0.894710000000     0.052850000000    -0.0212333  
C210     C      0.387340000000     0.842490000000     0.961490000000    -0.0679737  
C211     C      0.406410000000     0.865510000000     0.034830000000     0.0135455  
C212     C      0.409290000000     0.863650000000     0.987480000000     0.0144803  
C213     C      0.347710000000     0.681370000000     0.029810000000    -0.0200746  
C214     C      0.399710000000     0.558930000000     0.975700000000    -0.0240856  
C215     C      0.425140000000     0.584310000000     0.044030000000    -0.0237841  
C216     C      0.398460000000     0.604590000000     0.026370000000     0.0127151  
C217     C      0.382440000000     0.588890000000     0.989290000000     0.0142803  
C218     C      0.353640000000     0.601020000000     0.970110000000    -0.0654967  
C219     C      0.312870000000     0.648100000000     0.976130000000    -0.0205559  
C220     C      0.389380000000     0.635590000000     0.042250000000    -0.0646304  
C221     C      0.343250000000     0.630940000000     0.988010000000     0.0136441  
C222     C      0.361910000000     0.648840000000     0.020990000000     0.0120009  
C223     C      0.168410000000     0.684140000000     0.966340000000    -0.034525   
C224     C      0.073070000000     0.595610000000     0.052960000000    -0.0212251  
C225     C      0.068090000000     0.598850000000     0.970090000000    -0.0213728  
C226     C      0.090780000000     0.626720000000     0.987620000000     0.0144886  
C227     C      0.093640000000     0.624850000000     0.034990000000     0.0134798  
C228     C      0.118700000000     0.643940000000     0.058640000000    -0.0678802  
C229     C      0.173300000000     0.680680000000     0.046900000000    -0.0352438  
C230     C      0.112810000000     0.647840000000     0.961660000000    -0.068076   
C231     C      0.140370000000     0.665340000000     0.032580000000     0.017667   
C232     C      0.137490000000     0.667310000000     0.985570000000     0.0184823  
C233     C      0.550710000000     0.455800000000     0.011010000000     0.39404    
C234     C      0.949450000000     0.034500000000     0.011010000000     0.3939     
C235     C      0.540780000000     0.049950000000     0.011080000000     0.408551   
C236     C      0.959370000000     0.440350000000     0.011020000000     0.408435   
C237     C      0.545350000000     0.449480000000     0.503270000000     0.395972   
C238     C      0.955340000000     0.040120000000     0.503260000000     0.397363   
C239     C      0.547440000000     0.044120000000     0.504350000000     0.411351   
C240     C      0.950300000000     0.448430000000     0.502170000000     0.411405   
C241     C      0.750070000000     0.245090000000     0.916680000000     0.473752   
C242     C      0.750120000000     0.245140000000     0.090440000000     0.475224   
C243     C      0.793980000000     0.202560000000     0.002880000000     0.456048   
C244     C      0.706170000000     0.287720000000     0.002880000000     0.456003   
C245     C      0.750770000000     0.244260000000     0.416620000000     0.47492    
C246     C      0.751000000000     0.244460000000     0.590480000000     0.475029   
C247     C      0.793930000000     0.201680000000     0.503440000000     0.462381   
C248     C      0.707330000000     0.287610000000     0.503490000000     0.456661   
C249     C      0.773070000000     0.266790000000     0.842120000000    -0.0176552  
C250     C      0.729540000000     0.221200000000     0.665020000000    -0.0175752  
C251     C      0.772160000000     0.267820000000     0.665090000000    -0.0176751  
C252     C      0.763040000000     0.257720000000     0.712640000000     0.0122091  
C253     C      0.738260000000     0.231570000000     0.712600000000     0.0120347  
C254     C      0.724560000000     0.218310000000     0.753540000000    -0.0653713  
C255     C      0.727300000000     0.223210000000     0.842070000000    -0.017766   
C256     C      0.776420000000     0.271220000000     0.753610000000    -0.0654403  
C257     C      0.737510000000     0.232230000000     0.794510000000     0.0121403  
C258     C      0.763160000000     0.257540000000     0.794540000000     0.0121768  
C259     C      0.771500000000     0.268360000000     0.165040000000    -0.0175992  
C260     C      0.727670000000     0.222780000000     0.342020000000    -0.0175608  
C261     C      0.773760000000     0.266030000000     0.342080000000    -0.0177311  
C262     C      0.763460000000     0.257180000000     0.294500000000     0.0121055  
C263     C      0.737680000000     0.232010000000     0.294460000000     0.0121352  
C264     C      0.724430000000     0.218380000000     0.253490000000    -0.0654053  
C265     C      0.728910000000     0.221710000000     0.164980000000    -0.0175664  
C266     C      0.776460000000     0.271120000000     0.253560000000    -0.0654004  
C267     C      0.737920000000     0.231840000000     0.212560000000     0.0121126  
C268     C      0.762730000000     0.257950000000     0.212600000000     0.0120718  
C269     C      0.652720000000     0.307240000000     0.529380000000    -0.020121   
C270     C      0.595590000000     0.425440000000     0.469690000000    -0.02387    
C271     C      0.569150000000     0.399270000000     0.536860000000    -0.0238128  
C272     C      0.597750000000     0.380610000000     0.521460000000     0.0135394  
C273     C      0.614190000000     0.396890000000     0.485130000000     0.0136385  
C274     C      0.644430000000     0.386440000000     0.468080000000    -0.0652243  
C275     C      0.687680000000     0.341910000000     0.477360000000    -0.0202728  
C276     C      0.608110000000     0.350470000000     0.538550000000    -0.0651199  
C277     C      0.655980000000     0.357480000000     0.487280000000     0.0127096  
C278     C      0.637160000000     0.338830000000     0.519380000000     0.0125381  
C279     C      0.901650000000     0.419700000000     0.541800000000    -0.0212593  
C280     C      0.814750000000     0.321380000000     0.461040000000    -0.0345878  
C281     C      0.810510000000     0.325900000000     0.541380000000    -0.0346734  
C282     C      0.828300000000     0.356420000000     0.522930000000     0.0185214  
C283     C      0.830820000000     0.353760000000     0.475850000000     0.0178784  
C284     C      0.854370000000     0.373850000000     0.450880000000    -0.0678293  
C285     C      0.906140000000     0.415130000000     0.458980000000    -0.0209651  
C286     C      0.849140000000     0.379320000000     0.547780000000    -0.0680867  
C287     C      0.875010000000     0.396990000000     0.475590000000     0.0139346  
C288     C      0.872440000000     0.399650000000     0.522880000000     0.0144141  
C289     C      0.813860000000     0.147890000000     0.476340000000    -0.0198354  
C290     C      0.931260000000     0.089790000000     0.537450000000    -0.0234994  
C291     C      0.905700000000     0.064520000000     0.469040000000    -0.0234419  
C292     C      0.887000000000     0.092850000000     0.484680000000     0.0136674  
C293     C      0.902940000000     0.108610000000     0.521810000000     0.0136296  
C294     C      0.892390000000     0.138470000000     0.539410000000    -0.0652905  
C295     C      0.848030000000     0.181730000000     0.530260000000    -0.0198368  
C296     C      0.857070000000     0.103530000000     0.467100000000    -0.0653434  
C297     C      0.863660000000     0.150350000000     0.519800000000     0.0131258  
C298     C      0.845320000000     0.132190000000     0.486730000000     0.0132046  
C299     C      0.669240000000     0.184650000000     0.465810000000    -0.034918   
C300     C      0.580920000000     0.087980000000     0.547630000000    -0.0210901  
C301     C      0.576430000000     0.092480000000     0.464790000000    -0.0214026  
C302     C      0.596080000000     0.121810000000     0.483860000000     0.014487   
C303     C      0.598680000000     0.119250000000     0.531160000000     0.0138608  
C304     C      0.621560000000     0.140120000000     0.556010000000    -0.067713   
C305     C      0.673700000000     0.180390000000     0.546150000000    -0.0336577  
C306     C      0.616170000000     0.145360000000     0.459100000000    -0.0681757  
C307     C      0.641430000000     0.163880000000     0.531180000000     0.0175289  
C308     C      0.638800000000     0.166430000000     0.484090000000     0.0187317  
C309     C      0.600470000000     0.431370000000     0.975730000000    -0.0241355  
C310     C      0.652430000000     0.308900000000     0.029790000000    -0.0199831  
C311     C      0.687290000000     0.342190000000     0.976160000000    -0.0205937  
C312     C      0.656900000000     0.359350000000     0.988030000000     0.0136972  
C313     C      0.638230000000     0.341430000000     0.020980000000     0.0119276  
C314     C      0.610760000000     0.354680000000     0.042230000000    -0.0645863  
C315     C      0.575000000000     0.405960000000     0.044020000000    -0.0237869  
C316     C      0.646540000000     0.389280000000     0.970140000000    -0.0655886  
C317     C      0.601680000000     0.385690000000     0.026360000000     0.0126875  
C318     C      0.617720000000     0.401410000000     0.989310000000     0.0143214  
C319     C      0.932020000000     0.391510000000     0.969980000000    -0.0213868  
C320     C      0.826880000000     0.309510000000     0.046680000000    -0.0357793  
C321     C      0.831770000000     0.306130000000     0.966130000000    -0.0340112  
C322     C      0.862710000000     0.322930000000     0.985390000000     0.018191   
C323     C      0.859830000000     0.324840000000     0.032410000000     0.0179465  
C324     C      0.881420000000     0.346320000000     0.058480000000    -0.0680046  
C325     C      0.927010000000     0.394710000000     0.052850000000    -0.0212491  
C326     C      0.887340000000     0.342490000000     0.961490000000    -0.0679674  
C327     C      0.906410000000     0.365510000000     0.034830000000     0.0135655  
C328     C      0.909290000000     0.363650000000     0.987480000000     0.0144942  
C329     C      0.847710000000     0.181370000000     0.029810000000    -0.0200825  
C330     C      0.899710000000     0.058930000000     0.975700000000    -0.0240969  
C331     C      0.925140000000     0.084310000000     0.044030000000    -0.0237945  
C332     C      0.898460000000     0.104590000000     0.026370000000     0.0127319  
C333     C      0.882440000000     0.088890000000     0.989290000000     0.0143006  
C334     C      0.853640000000     0.101020000000     0.970110000000    -0.0654984  
C335     C      0.812870000000     0.148100000000     0.976130000000    -0.0205956  
C336     C      0.889380000000     0.135590000000     0.042250000000    -0.0646239  
C337     C      0.843250000000     0.130940000000     0.988010000000     0.0136678  
C338     C      0.861910000000     0.148840000000     0.020990000000     0.0120072  
C339     C      0.668410000000     0.184140000000     0.966340000000    -0.0345292  
C340     C      0.573070000000     0.095610000000     0.052960000000    -0.0212767  
C341     C      0.568090000000     0.098850000000     0.970090000000    -0.0213885  
C342     C      0.590780000000     0.126720000000     0.987620000000     0.014496   
C343     C      0.593640000000     0.124850000000     0.034990000000     0.0135136  
C344     C      0.618700000000     0.143940000000     0.058640000000    -0.0678936  
C345     C      0.673300000000     0.180680000000     0.046900000000    -0.0352517  
C346     C      0.612810000000     0.147840000000     0.961660000000    -0.0680666  
C347     C      0.640370000000     0.165340000000     0.032580000000     0.017679   
C348     C      0.637490000000     0.167310000000     0.985570000000     0.0184867  
C349     C      0.550710000000     0.955800000000     0.011010000000     0.394012   
C350     C      0.949450000000     0.534500000000     0.011010000000     0.393928   
C351     C      0.540780000000     0.549960000000     0.011080000000     0.40852    
C352     C      0.959370000000     0.940350000000     0.011020000000     0.408486   
C353     C      0.545350000000     0.949480000000     0.503270000000     0.395968   
C354     C      0.955340000000     0.540120000000     0.503260000000     0.397404   
C355     C      0.547440000000     0.544120000000     0.504350000000     0.411399   
C356     C      0.950300000000     0.948430000000     0.502170000000     0.411398   
C357     C      0.750070000000     0.745090000000     0.916680000000     0.473766   
C358     C      0.750120000000     0.745140000000     0.090440000000     0.475235   
C359     C      0.793980000000     0.702560000000     0.002880000000     0.456176   
C360     C      0.706170000000     0.787720000000     0.002880000000     0.455789   
C361     C      0.750770000000     0.744260000000     0.416620000000     0.475062   
C362     C      0.751000000000     0.744460000000     0.590480000000     0.47503    
C363     C      0.793930000000     0.701680000000     0.503440000000     0.462389   
C364     C      0.707330000000     0.787610000000     0.503490000000     0.456664   
C365     C      0.773070000000     0.766790000000     0.842120000000    -0.0176537  
C366     C      0.729540000000     0.721200000000     0.665020000000    -0.0175734  
C367     C      0.772160000000     0.767820000000     0.665090000000    -0.0176741  
C368     C      0.763040000000     0.757720000000     0.712640000000     0.0122077  
C369     C      0.738260000000     0.731570000000     0.712600000000     0.0120319  
C370     C      0.724560000000     0.718310000000     0.753540000000    -0.0653714  
C371     C      0.727300000000     0.723210000000     0.842070000000    -0.0177629  
C372     C      0.776420000000     0.771220000000     0.753610000000    -0.0654412  
C373     C      0.737510000000     0.732230000000     0.794510000000     0.0121372  
C374     C      0.763160000000     0.757540000000     0.794540000000     0.0121753  
C375     C      0.771500000000     0.768360000000     0.165040000000    -0.0175933  
C376     C      0.727670000000     0.722780000000     0.342020000000    -0.0175558  
C377     C      0.773760000000     0.766030000000     0.342080000000    -0.0177261  
C378     C      0.763460000000     0.757180000000     0.294500000000     0.0120979  
C379     C      0.737670000000     0.732010000000     0.294460000000     0.0121377  
C380     C      0.724430000000     0.718380000000     0.253490000000    -0.0654117  
C381     C      0.728910000000     0.721710000000     0.164980000000    -0.0175664  
C382     C      0.776460000000     0.771110000000     0.253560000000    -0.0653652  
C383     C      0.737920000000     0.731840000000     0.212560000000     0.0121164  
C384     C      0.762730000000     0.757950000000     0.212600000000     0.0120579  
C385     C      0.652720000000     0.807250000000     0.529380000000    -0.0200807  
C386     C      0.595590000000     0.925440000000     0.469690000000    -0.0238685  
C387     C      0.569150000000     0.899280000000     0.536860000000    -0.0237365  
C388     C      0.597750000000     0.880610000000     0.521460000000     0.0134934  
C389     C      0.614190000000     0.896880000000     0.485130000000     0.0136479  
C390     C      0.644430000000     0.886440000000     0.468080000000    -0.0652384  
C391     C      0.687680000000     0.841910000000     0.477360000000    -0.0202731  
C392     C      0.608110000000     0.850470000000     0.538550000000    -0.0650985  
C393     C      0.655980000000     0.857480000000     0.487280000000     0.0127135  
C394     C      0.637160000000     0.838830000000     0.519380000000     0.0125191  
C395     C      0.901650000000     0.919700000000     0.541800000000    -0.0212553  
C396     C      0.814750000000     0.821380000000     0.461040000000    -0.0345889  
C397     C      0.810510000000     0.825900000000     0.541380000000    -0.0346711  
C398     C      0.828300000000     0.856420000000     0.522930000000     0.0185154  
C399     C      0.830820000000     0.853760000000     0.475850000000     0.0178793  
C400     C      0.854370000000     0.873850000000     0.450880000000    -0.0678462  
C401     C      0.906140000000     0.915130000000     0.458980000000    -0.0209953  
C402     C      0.849140000000     0.879320000000     0.547780000000    -0.0680929  
C403     C      0.875010000000     0.896980000000     0.475590000000     0.0139461  
C404     C      0.872440000000     0.899640000000     0.522880000000     0.0144052  
C405     C      0.813860000000     0.647900000000     0.476340000000    -0.0197395  
C406     C      0.931260000000     0.589790000000     0.537450000000    -0.0234987  
C407     C      0.905700000000     0.564520000000     0.469040000000    -0.0234289  
C408     C      0.887000000000     0.592850000000     0.484680000000     0.0136432  
C409     C      0.902940000000     0.608610000000     0.521810000000     0.0136332  
C410     C      0.892390000000     0.638470000000     0.539410000000    -0.0653035  
C411     C      0.848030000000     0.681730000000     0.530260000000    -0.0198426  
C412     C      0.857070000000     0.603530000000     0.467100000000    -0.0653222  
C413     C      0.863660000000     0.650350000000     0.519800000000     0.0131425  
C414     C      0.845320000000     0.632190000000     0.486730000000     0.0131505  
C415     C      0.669240000000     0.684650000000     0.465810000000    -0.034917   
C416     C      0.580920000000     0.587980000000     0.547630000000    -0.0210608  
C417     C      0.576430000000     0.592480000000     0.464790000000    -0.0213961  
C418     C      0.596080000000     0.621810000000     0.483860000000     0.0144833  
C419     C      0.598680000000     0.619250000000     0.531160000000     0.0138473  
C420     C      0.621560000000     0.640120000000     0.556010000000    -0.0677095  
C421     C      0.673700000000     0.680390000000     0.546150000000    -0.0336559  
C422     C      0.616170000000     0.645360000000     0.459100000000    -0.0681778  
C423     C      0.641430000000     0.663880000000     0.531180000000     0.0175242  
C424     C      0.638800000000     0.666430000000     0.484090000000     0.0187306  
C425     C      0.600470000000     0.931370000000     0.975730000000    -0.0241527  
C426     C      0.652430000000     0.808900000000     0.029790000000    -0.0200277  
C427     C      0.687290000000     0.842190000000     0.976160000000    -0.0206024  
C428     C      0.656900000000     0.859350000000     0.988030000000     0.0136896  
C429     C      0.638230000000     0.841440000000     0.020980000000     0.0119484  
C430     C      0.610760000000     0.854680000000     0.042230000000    -0.0646041  
C431     C      0.575000000000     0.905960000000     0.044020000000    -0.0237915  
C432     C      0.646540000000     0.889270000000     0.970140000000    -0.0655655  
C433     C      0.601680000000     0.885690000000     0.026360000000     0.0126971  
C434     C      0.617720000000     0.901410000000     0.989310000000     0.0142966  
C435     C      0.932020000000     0.891510000000     0.969980000000    -0.0213854  
C436     C      0.826880000000     0.809520000000     0.046680000000    -0.0357439  
C437     C      0.831770000000     0.806130000000     0.966130000000    -0.0340122  
C438     C      0.862710000000     0.822930000000     0.985390000000     0.0181937  
C439     C      0.859830000000     0.824840000000     0.032410000000     0.0179326  
C440     C      0.881420000000     0.846320000000     0.058480000000    -0.0679986  
C441     C      0.927010000000     0.894710000000     0.052850000000    -0.0212398  
C442     C      0.887340000000     0.842490000000     0.961490000000    -0.0679713  
C443     C      0.906410000000     0.865510000000     0.034830000000     0.0135567  
C444     C      0.909290000000     0.863650000000     0.987480000000     0.0144936  
C445     C      0.847710000000     0.681370000000     0.029810000000    -0.0200781  
C446     C      0.899710000000     0.558930000000     0.975700000000    -0.0240883  
C447     C      0.925140000000     0.584310000000     0.044030000000    -0.023792   
C448     C      0.898460000000     0.604590000000     0.026370000000     0.01273    
C449     C      0.882440000000     0.588890000000     0.989290000000     0.0142841  
C450     C      0.853640000000     0.601020000000     0.970110000000    -0.0654925  
C451     C      0.812870000000     0.648100000000     0.976130000000    -0.0205557  
C452     C      0.889380000000     0.635590000000     0.042250000000    -0.0646296  
C453     C      0.843250000000     0.630940000000     0.988010000000     0.0136444  
C454     C      0.861910000000     0.648840000000     0.020990000000     0.0120105  
C455     C      0.668410000000     0.684140000000     0.966340000000    -0.0345263  
C456     C      0.573070000000     0.595610000000     0.052960000000    -0.0212566  
C457     C      0.568090000000     0.598850000000     0.970090000000    -0.0213746  
C458     C      0.590780000000     0.626720000000     0.987620000000     0.0144952  
C459     C      0.593640000000     0.624850000000     0.034990000000     0.0134983  
C460     C      0.618700000000     0.643940000000     0.058640000000    -0.0678832  
C461     C      0.673300000000     0.680680000000     0.046900000000    -0.0352462  
C462     C      0.612810000000     0.647840000000     0.961660000000    -0.0680718  
C463     C      0.640370000000     0.665340000000     0.032580000000     0.0176729  
C464     C      0.637490000000     0.667310000000     0.985570000000     0.0184854  
Cu1      Cu     0.500090000000     0.995160000000     0.968670000000     0.836782   
Cu2      Cu     0.000070000000     0.495140000000     0.053250000000     0.842969   
Cu3      Cu     0.500450000000     0.995030000000     0.460970000000     0.845549   
Cu4      Cu     0.000100000000     0.494690000000     0.545560000000     0.845288   
Cu5      Cu     0.275270000000     0.270480000000     0.003650000000     1.15943    
Cu6      Cu     0.224890000000     0.219790000000     0.003660000000     1.15957    
Cu7      Cu     0.275920000000     0.269590000000     0.503610000000     1.16286    
Cu8      Cu     0.225620000000     0.219420000000     0.503510000000     1.16387    
Cu9      Cu     0.500090000000     0.495160000000     0.968670000000     0.837015   
Cu10     Cu     0.000070000000     0.995140000000     0.053250000000     0.842637   
Cu11     Cu     0.500450000000     0.495040000000     0.460970000000     0.8458     
Cu12     Cu     0.000100000000     0.994690000000     0.545560000000     0.845041   
Cu13     Cu     0.275270000000     0.770480000000     0.003650000000     1.15944    
Cu14     Cu     0.224890000000     0.719790000000     0.003660000000     1.15972    
Cu15     Cu     0.275920000000     0.769590000000     0.503610000000     1.16286    
Cu16     Cu     0.225620000000     0.719420000000     0.503510000000     1.16389    
Cu17     Cu     0.000090000000     0.995160000000     0.968670000000     0.83652    
Cu18     Cu     0.500070000000     0.495140000000     0.053250000000     0.843232   
Cu19     Cu     0.000450000000     0.995030000000     0.460970000000     0.845286   
Cu20     Cu     0.500090000000     0.494690000000     0.545560000000     0.845554   
Cu21     Cu     0.775270000000     0.270480000000     0.003650000000     1.15946    
Cu22     Cu     0.724890000000     0.219790000000     0.003660000000     1.15946    
Cu23     Cu     0.775920000000     0.269590000000     0.503610000000     1.16286    
Cu24     Cu     0.725620000000     0.219420000000     0.503510000000     1.16387    
Cu25     Cu     0.000090000000     0.495160000000     0.968670000000     0.836753   
Cu26     Cu     0.500070000000     0.995140000000     0.053250000000     0.8429     
Cu27     Cu     0.000450000000     0.495040000000     0.460970000000     0.845537   
Cu28     Cu     0.500090000000     0.994690000000     0.545560000000     0.845307   
Cu29     Cu     0.775270000000     0.770480000000     0.003650000000     1.15943    
Cu30     Cu     0.724890000000     0.719790000000     0.003660000000     1.15972    
Cu31     Cu     0.775920000000     0.769590000000     0.503610000000     1.16286    
Cu32     Cu     0.725620000000     0.719420000000     0.503510000000     1.16389    
H1       H      0.299120000000     0.265480000000     0.658250000000     0.0406567  
H2       H      0.235110000000     0.195050000000     0.658700000000     0.0421513  
H3       H      0.204880000000     0.198210000000     0.753510000000     0.0428713  
H4       H      0.296120000000     0.291300000000     0.753640000000     0.0429864  
H5       H      0.299530000000     0.262070000000     0.848830000000     0.0415134  
H6       H      0.200820000000     0.228010000000     0.848410000000     0.0414146  
H7       H      0.266680000000     0.293940000000     0.658360000000     0.0413584  
H8       H      0.202640000000     0.223470000000     0.657690000000     0.0388919  
H9       H      0.230320000000     0.196560000000     0.849290000000     0.0407003  
H10      H      0.269960000000     0.293470000000     0.849040000000     0.0405833  
H11      H      0.270970000000     0.292700000000     0.349430000000     0.0388718  
H12      H      0.201270000000     0.227740000000     0.348720000000     0.0413515  
H13      H      0.204680000000     0.198350000000     0.253470000000     0.0429077  
H14      H      0.296230000000     0.291130000000     0.253590000000     0.0428038  
H15      H      0.265890000000     0.294500000000     0.158730000000     0.0420155  
H16      H      0.234440000000     0.195590000000     0.158320000000     0.0421426  
H17      H      0.300180000000     0.260980000000     0.348370000000     0.0421166  
H18      H      0.230530000000     0.196050000000     0.348890000000     0.040632   
H19      H      0.201960000000     0.224010000000     0.158010000000     0.0388223  
H20      H      0.298420000000     0.266150000000     0.157770000000     0.0388961  
H21      H      0.073540000000     0.409330000000     0.572010000000     0.0456864  
H22      H      0.111900000000     0.449130000000     0.469790000000     0.0419084  
H23      H      0.158240000000     0.400120000000     0.441280000000     0.0442314  
H24      H      0.094310000000     0.336790000000     0.565370000000     0.0441084  
H25      H      0.157460000000     0.304420000000     0.566640000000     0.0393132  
H26      H      0.190520000000     0.337140000000     0.440110000000     0.039384   
H27      H      0.045260000000     0.383160000000     0.536740000000     0.041774   
H28      H      0.085480000000     0.421100000000     0.434540000000     0.0457064  
H29      H      0.209770000000     0.358120000000     0.489230000000     0.0437895  
H30      H      0.136380000000     0.285290000000     0.517500000000     0.0436492  
H31      H      0.284370000000     0.330730000000     0.549910000000     0.0408451  
H32      H      0.289850000000     0.324960000000     0.446040000000     0.0407731  
H33      H      0.358650000000     0.369420000000     0.414830000000     0.0439834  
H34      H      0.349500000000     0.379030000000     0.584890000000     0.0443109  
H35      H      0.393930000000     0.442660000000     0.558420000000     0.0440727  
H36      H      0.422210000000     0.398430000000     0.440390000000     0.043735   
H37      H      0.323180000000     0.316640000000     0.572130000000     0.0437975  
H38      H      0.330320000000     0.308950000000     0.435850000000     0.0437535  
H39      H      0.400560000000     0.435910000000     0.435920000000     0.043252   
H40      H      0.415320000000     0.405410000000     0.567220000000     0.0435923  
H41      H      0.416300000000     0.069300000000     0.434240000000     0.0453634  
H42      H      0.455160000000     0.105870000000     0.538200000000     0.0411523  
H43      H      0.405810000000     0.151750000000     0.566910000000     0.0443258  
H44      H      0.343640000000     0.090240000000     0.439620000000     0.0444321  
H45      H      0.311630000000     0.153260000000     0.439160000000     0.0409374  
H46      H      0.342680000000     0.183960000000     0.567450000000     0.0408805  
H47      H      0.389370000000     0.040840000000     0.468260000000     0.0412555  
H48      H      0.426400000000     0.079270000000     0.572250000000     0.045387   
H49      H      0.364550000000     0.203850000000     0.519400000000     0.0460075  
H50      H      0.291580000000     0.131520000000     0.487170000000     0.0461862  
H51      H      0.091160000000     0.079100000000     0.439570000000     0.0435656  
H52      H      0.097990000000     0.072220000000     0.566050000000     0.0437388  
H53      H      0.126000000000     0.135880000000     0.592060000000     0.043947   
H54      H      0.116550000000     0.145060000000     0.421980000000     0.0442826  
H55      H      0.178800000000     0.172320000000     0.435010000000     0.0439445  
H56      H      0.169690000000     0.205090000000     0.561090000000     0.0403591  
H57      H      0.053320000000     0.099810000000     0.447900000000     0.044195   
H58      H      0.059970000000     0.093150000000     0.570800000000     0.0433589  
H59      H      0.186390000000     0.165120000000     0.571410000000     0.0435914  
H60      H      0.164010000000     0.210590000000     0.457450000000     0.0407609  
H61      H      0.210430000000     0.357430000000     0.986590000000     0.0468082  
H62      H      0.157920000000     0.305560000000     0.066760000000     0.0396846  
H63      H      0.097190000000     0.341600000000     0.069770000000     0.0438949  
H64      H      0.160230000000     0.402470000000     0.942810000000     0.0445953  
H65      H      0.118070000000     0.454170000000     0.975510000000     0.0417318  
H66      H      0.050350000000     0.391150000000     0.045440000000     0.0416154  
H67      H      0.188620000000     0.337260000000     0.938760000000     0.040434   
H68      H      0.134840000000     0.287750000000     0.018340000000     0.0432359  
H69      H      0.081280000000     0.415540000000     0.078940000000     0.0453539  
H70      H      0.089120000000     0.428090000000     0.941110000000     0.0458644  
H71      H      0.336240000000     0.280270000000     0.956260000000     0.0403152  
H72      H      0.329910000000     0.284740000000     0.062020000000     0.0410819  
H73      H      0.377170000000     0.350040000000     0.094690000000     0.0440482  
H74      H      0.387570000000     0.343330000000     0.924400000000     0.0443473  
H75      H      0.454720000000     0.382200000000     0.954370000000     0.0430722  
H76      H      0.411780000000     0.411470000000     0.072740000000     0.0445516  
H77      H      0.322810000000     0.319690000000     0.936000000000     0.0429888  
H78      H      0.314570000000     0.325380000000     0.071590000000     0.0440107  
H79      H      0.447420000000     0.386840000000     0.075060000000     0.0421221  
H80      H      0.419540000000     0.406500000000     0.944110000000     0.0444589  
H81      H      0.418850000000     0.074720000000     0.078940000000     0.0453639  
H82      H      0.382100000000     0.036130000000     0.975450000000     0.0417302  
H83      H      0.339950000000     0.087830000000     0.942760000000     0.0445822  
H84      H      0.402930000000     0.148660000000     0.069810000000     0.0439378  
H85      H      0.342200000000     0.184700000000     0.066770000000     0.0397528  
H86      H      0.311560000000     0.153050000000     0.938730000000     0.0404907  
H87      H      0.449780000000     0.099130000000     0.045470000000     0.0416418  
H88      H      0.411060000000     0.062230000000     0.941090000000     0.0458637  
H89      H      0.289730000000     0.132860000000     0.986530000000     0.046851   
H90      H      0.365310000000     0.202520000000     0.018380000000     0.0432787  
H91      H      0.080590000000     0.083890000000     0.944200000000     0.0444765  
H92      H      0.088310000000     0.078860000000     0.072850000000     0.0445975  
H93      H      0.122940000000     0.140200000000     0.094850000000     0.044018   
H94      H      0.112570000000     0.147010000000     0.924560000000     0.0443306  
H95      H      0.177390000000     0.170610000000     0.936190000000     0.0431311  
H96      H      0.170250000000     0.205440000000     0.062280000000     0.040952   
H97      H      0.045380000000     0.108140000000     0.954500000000     0.0430382  
H98      H      0.052630000000     0.103440000000     0.075160000000     0.0420852  
H99      H      0.185610000000     0.164800000000     0.071770000000     0.0438991  
H100     H      0.163930000000     0.210000000000     0.956500000000     0.0403809  
H101     H      0.299120000000     0.765480000000     0.658250000000     0.0406817  
H102     H      0.235110000000     0.695050000000     0.658700000000     0.0421451  
H103     H      0.204880000000     0.698210000000     0.753510000000     0.0428639  
H104     H      0.296120000000     0.791300000000     0.753640000000     0.0429871  
H105     H      0.299530000000     0.762070000000     0.848830000000     0.0415119  
H106     H      0.200820000000     0.728010000000     0.848410000000     0.0414118  
H107     H      0.266680000000     0.793940000000     0.658360000000     0.0413763  
H108     H      0.202640000000     0.723470000000     0.657690000000     0.0388891  
H109     H      0.230320000000     0.696560000000     0.849290000000     0.0406939  
H110     H      0.269960000000     0.793470000000     0.849040000000     0.0405799  
H111     H      0.270970000000     0.792700000000     0.349430000000     0.0388828  
H112     H      0.201270000000     0.727740000000     0.348720000000     0.0413454  
H113     H      0.204680000000     0.698350000000     0.253470000000     0.0429011  
H114     H      0.296230000000     0.791130000000     0.253590000000     0.0427819  
H115     H      0.265890000000     0.794500000000     0.158730000000     0.0420119  
H116     H      0.234440000000     0.695590000000     0.158320000000     0.042136   
H117     H      0.300180000000     0.760990000000     0.348370000000     0.0421426  
H118     H      0.230530000000     0.696050000000     0.348890000000     0.0406258  
H119     H      0.201960000000     0.724010000000     0.158010000000     0.03882    
H120     H      0.298420000000     0.766140000000     0.157770000000     0.0388965  
H121     H      0.073540000000     0.909330000000     0.572010000000     0.0456544  
H122     H      0.111900000000     0.949130000000     0.469790000000     0.0418813  
H123     H      0.158240000000     0.900120000000     0.441280000000     0.0442205  
H124     H      0.094310000000     0.836790000000     0.565370000000     0.0440998  
H125     H      0.157460000000     0.804420000000     0.566640000000     0.039299   
H126     H      0.190520000000     0.837140000000     0.440110000000     0.0393784  
H127     H      0.045260000000     0.883160000000     0.536740000000     0.0417477  
H128     H      0.085480000000     0.921100000000     0.434540000000     0.0456948  
H129     H      0.209770000000     0.858120000000     0.489230000000     0.0437811  
H130     H      0.136380000000     0.785290000000     0.517500000000     0.0436341  
H131     H      0.284370000000     0.830730000000     0.549910000000     0.0408401  
H132     H      0.289860000000     0.824960000000     0.446040000000     0.0407579  
H133     H      0.358650000000     0.869420000000     0.414830000000     0.0439806  
H134     H      0.349500000000     0.879030000000     0.584890000000     0.0443034  
H135     H      0.393930000000     0.942660000000     0.558420000000     0.0440462  
H136     H      0.422210000000     0.898440000000     0.440390000000     0.0437456  
H137     H      0.323180000000     0.816640000000     0.572130000000     0.0437959  
H138     H      0.330320000000     0.808950000000     0.435850000000     0.0437538  
H139     H      0.400560000000     0.935910000000     0.435920000000     0.0432344  
H140     H      0.415320000000     0.905410000000     0.567220000000     0.0435855  
H141     H      0.416300000000     0.569300000000     0.434240000000     0.045344   
H142     H      0.455160000000     0.605870000000     0.538200000000     0.0411472  
H143     H      0.405810000000     0.651750000000     0.566910000000     0.0443245  
H144     H      0.343640000000     0.590240000000     0.439620000000     0.0444077  
H145     H      0.311630000000     0.653260000000     0.439160000000     0.0409075  
H146     H      0.342680000000     0.683960000000     0.567450000000     0.0408777  
H147     H      0.389370000000     0.540840000000     0.468260000000     0.0412167  
H148     H      0.426400000000     0.579270000000     0.572250000000     0.0453677  
H149     H      0.364550000000     0.703850000000     0.519400000000     0.0460094  
H150     H      0.291580000000     0.631520000000     0.487170000000     0.0461447  
H151     H      0.091160000000     0.579100000000     0.439570000000     0.0435423  
H152     H      0.097990000000     0.572210000000     0.566050000000     0.0437057  
H153     H      0.126000000000     0.635880000000     0.592060000000     0.0439377  
H154     H      0.116550000000     0.645060000000     0.421980000000     0.0442759  
H155     H      0.178800000000     0.672320000000     0.435010000000     0.0439396  
H156     H      0.169690000000     0.705090000000     0.561090000000     0.0403581  
H157     H      0.053320000000     0.599810000000     0.447900000000     0.0441849  
H158     H      0.059970000000     0.593150000000     0.570800000000     0.0433415  
H159     H      0.186390000000     0.665120000000     0.571410000000     0.0435845  
H160     H      0.164010000000     0.710590000000     0.457450000000     0.0407606  
H161     H      0.210430000000     0.857430000000     0.986590000000     0.0468018  
H162     H      0.157920000000     0.805560000000     0.066760000000     0.0396846  
H163     H      0.097190000000     0.841600000000     0.069770000000     0.0438963  
H164     H      0.160230000000     0.902470000000     0.942810000000     0.0445651  
H165     H      0.118070000000     0.954170000000     0.975510000000     0.0417001  
H166     H      0.050350000000     0.891150000000     0.045440000000     0.0416178  
H167     H      0.188620000000     0.837260000000     0.938760000000     0.0404336  
H168     H      0.134840000000     0.787750000000     0.018340000000     0.0432382  
H169     H      0.081280000000     0.915540000000     0.078940000000     0.0453424  
H170     H      0.089120000000     0.928090000000     0.941110000000     0.0458503  
H171     H      0.336240000000     0.780270000000     0.956260000000     0.0403161  
H172     H      0.329910000000     0.784740000000     0.062020000000     0.041065   
H173     H      0.377170000000     0.850040000000     0.094690000000     0.0440406  
H174     H      0.387570000000     0.843330000000     0.924400000000     0.044343   
H175     H      0.454720000000     0.882200000000     0.954370000000     0.04307    
H176     H      0.411780000000     0.911470000000     0.072740000000     0.0445341  
H177     H      0.322810000000     0.819690000000     0.936000000000     0.0429839  
H178     H      0.314570000000     0.825380000000     0.071590000000     0.0440005  
H179     H      0.447420000000     0.886840000000     0.075060000000     0.0421225  
H180     H      0.419540000000     0.906500000000     0.944110000000     0.044442   
H181     H      0.418850000000     0.574720000000     0.078940000000     0.0453444  
H182     H      0.382100000000     0.536130000000     0.975450000000     0.0416946  
H183     H      0.339950000000     0.587830000000     0.942760000000     0.0445612  
H184     H      0.402930000000     0.648660000000     0.069810000000     0.0439345  
H185     H      0.342200000000     0.684700000000     0.066770000000     0.0397423  
H186     H      0.311560000000     0.653050000000     0.938730000000     0.0404712  
H187     H      0.449780000000     0.599130000000     0.045470000000     0.0416344  
H188     H      0.411060000000     0.562230000000     0.941090000000     0.0458437  
H189     H      0.289730000000     0.632850000000     0.986530000000     0.0468105  
H190     H      0.365310000000     0.702520000000     0.018380000000     0.0432734  
H191     H      0.080590000000     0.583890000000     0.944200000000     0.0444531  
H192     H      0.088310000000     0.578860000000     0.072850000000     0.0445695  
H193     H      0.122940000000     0.640190000000     0.094850000000     0.0440035  
H194     H      0.112570000000     0.647020000000     0.924560000000     0.0443247  
H195     H      0.177390000000     0.670610000000     0.936190000000     0.0431218  
H196     H      0.170250000000     0.705440000000     0.062280000000     0.0409541  
H197     H      0.045380000000     0.608140000000     0.954500000000     0.0430244  
H198     H      0.052630000000     0.603440000000     0.075160000000     0.0420681  
H199     H      0.185610000000     0.664800000000     0.071770000000     0.0438883  
H200     H      0.163930000000     0.710000000000     0.956500000000     0.0403828  
H201     H      0.799120000000     0.265480000000     0.658250000000     0.0406673  
H202     H      0.735110000000     0.195050000000     0.658700000000     0.0421402  
H203     H      0.704880000000     0.198210000000     0.753510000000     0.0428944  
H204     H      0.796120000000     0.291300000000     0.753640000000     0.042994   
H205     H      0.799530000000     0.262070000000     0.848830000000     0.0415183  
H206     H      0.700820000000     0.228010000000     0.848410000000     0.0414197  
H207     H      0.766680000000     0.293940000000     0.658360000000     0.0413734  
H208     H      0.702640000000     0.223470000000     0.657690000000     0.0388907  
H209     H      0.730320000000     0.196560000000     0.849290000000     0.0407018  
H210     H      0.769960000000     0.293470000000     0.849040000000     0.0405857  
H211     H      0.770970000000     0.292700000000     0.349430000000     0.0388982  
H212     H      0.701270000000     0.227740000000     0.348720000000     0.0413544  
H213     H      0.704680000000     0.198350000000     0.253470000000     0.0429095  
H214     H      0.796230000000     0.291130000000     0.253590000000     0.0428143  
H215     H      0.765890000000     0.294500000000     0.158730000000     0.0420181  
H216     H      0.734440000000     0.195590000000     0.158320000000     0.0421431  
H217     H      0.800180000000     0.260980000000     0.348370000000     0.0421515  
H218     H      0.730530000000     0.196050000000     0.348890000000     0.0406332  
H219     H      0.701960000000     0.224010000000     0.158010000000     0.0388252  
H220     H      0.798420000000     0.266150000000     0.157770000000     0.0389013  
H221     H      0.573540000000     0.409330000000     0.572010000000     0.0456992  
H222     H      0.611900000000     0.449130000000     0.469790000000     0.0419093  
H223     H      0.658250000000     0.400120000000     0.441280000000     0.0442215  
H224     H      0.594310000000     0.336790000000     0.565370000000     0.0441238  
H225     H      0.657460000000     0.304420000000     0.566640000000     0.0393187  
H226     H      0.690520000000     0.337140000000     0.440110000000     0.0393961  
H227     H      0.545260000000     0.383160000000     0.536740000000     0.0418039  
H228     H      0.585480000000     0.421100000000     0.434540000000     0.0457199  
H229     H      0.709770000000     0.358120000000     0.489230000000     0.0438021  
H230     H      0.636380000000     0.285290000000     0.517500000000     0.0436585  
H231     H      0.784370000000     0.330730000000     0.549910000000     0.0408459  
H232     H      0.789850000000     0.324960000000     0.446040000000     0.0407541  
H233     H      0.858650000000     0.369420000000     0.414830000000     0.0439868  
H234     H      0.849500000000     0.379030000000     0.584890000000     0.0443199  
H235     H      0.893930000000     0.442660000000     0.558420000000     0.0440835  
H236     H      0.922210000000     0.398430000000     0.440390000000     0.0437608  
H237     H      0.823180000000     0.316640000000     0.572130000000     0.043804   
H238     H      0.830320000000     0.308950000000     0.435850000000     0.0437545  
H239     H      0.900560000000     0.435910000000     0.435920000000     0.0432635  
H240     H      0.915320000000     0.405410000000     0.567220000000     0.0436172  
H241     H      0.916300000000     0.069300000000     0.434240000000     0.0453839  
H242     H      0.955160000000     0.105870000000     0.538200000000     0.0411938  
H243     H      0.905810000000     0.151750000000     0.566910000000     0.0443515  
H244     H      0.843640000000     0.090240000000     0.439620000000     0.0444335  
H245     H      0.811630000000     0.153260000000     0.439160000000     0.0409401  
H246     H      0.842680000000     0.183960000000     0.567450000000     0.0409119  
H247     H      0.889370000000     0.040840000000     0.468260000000     0.0412609  
H248     H      0.926400000000     0.079270000000     0.572250000000     0.0454078  
H249     H      0.864550000000     0.203850000000     0.519400000000     0.0460498  
H250     H      0.791580000000     0.131520000000     0.487170000000     0.0461849  
H251     H      0.591160000000     0.079100000000     0.439570000000     0.043572   
H252     H      0.597990000000     0.072220000000     0.566050000000     0.0437437  
H253     H      0.626000000000     0.135880000000     0.592060000000     0.043954   
H254     H      0.616550000000     0.145060000000     0.421980000000     0.0442913  
H255     H      0.678800000000     0.172320000000     0.435010000000     0.0439461  
H256     H      0.669690000000     0.205090000000     0.561090000000     0.0403639  
H257     H      0.553320000000     0.099810000000     0.447900000000     0.0442229  
H258     H      0.559970000000     0.093150000000     0.570800000000     0.0433844  
H259     H      0.686390000000     0.165120000000     0.571410000000     0.0435926  
H260     H      0.664010000000     0.210590000000     0.457450000000     0.0407656  
H261     H      0.710430000000     0.357430000000     0.986590000000     0.0468056  
H262     H      0.657920000000     0.305560000000     0.066760000000     0.0396822  
H263     H      0.597190000000     0.341600000000     0.069770000000     0.0439082  
H264     H      0.660230000000     0.402470000000     0.942810000000     0.0445968  
H265     H      0.618080000000     0.454170000000     0.975510000000     0.0417186  
H266     H      0.550350000000     0.391150000000     0.045440000000     0.0416485  
H267     H      0.688630000000     0.337260000000     0.938760000000     0.0404358  
H268     H      0.634830000000     0.287750000000     0.018340000000     0.0432283  
H269     H      0.581280000000     0.415540000000     0.078940000000     0.0453665  
H270     H      0.589130000000     0.428090000000     0.941110000000     0.0458727  
H271     H      0.836240000000     0.280270000000     0.956260000000     0.040321   
H272     H      0.829910000000     0.284740000000     0.062020000000     0.0410869  
H273     H      0.877170000000     0.350040000000     0.094690000000     0.0440575  
H274     H      0.887570000000     0.343330000000     0.924400000000     0.0443594  
H275     H      0.954720000000     0.382200000000     0.954370000000     0.04311    
H276     H      0.911780000000     0.411470000000     0.072740000000     0.0445627  
H277     H      0.822810000000     0.319690000000     0.936000000000     0.042991   
H278     H      0.814570000000     0.325380000000     0.071590000000     0.0440118  
H279     H      0.947420000000     0.386840000000     0.075060000000     0.0421576  
H280     H      0.919540000000     0.406500000000     0.944110000000     0.0444726  
H281     H      0.918850000000     0.074720000000     0.078940000000     0.045382   
H282     H      0.882100000000     0.036130000000     0.975450000000     0.0417351  
H283     H      0.839950000000     0.087830000000     0.942760000000     0.0445851  
H284     H      0.902930000000     0.148660000000     0.069810000000     0.0439567  
H285     H      0.842200000000     0.184700000000     0.066770000000     0.0397546  
H286     H      0.811560000000     0.153050000000     0.938730000000     0.0404914  
H287     H      0.949780000000     0.099130000000     0.045470000000     0.041682   
H288     H      0.911060000000     0.062230000000     0.941090000000     0.0458839  
H289     H      0.789730000000     0.132860000000     0.986530000000     0.0468483  
H290     H      0.865310000000     0.202520000000     0.018380000000     0.0432876  
H291     H      0.580590000000     0.083890000000     0.944200000000     0.0444837  
H292     H      0.588310000000     0.078860000000     0.072850000000     0.0446087  
H293     H      0.622940000000     0.140200000000     0.094850000000     0.0440258  
H294     H      0.612570000000     0.147010000000     0.924560000000     0.0443393  
H295     H      0.677390000000     0.170610000000     0.936190000000     0.043132   
H296     H      0.670250000000     0.205440000000     0.062280000000     0.0409582  
H297     H      0.545380000000     0.108140000000     0.954500000000     0.0430682  
H298     H      0.552640000000     0.103440000000     0.075160000000     0.0421239  
H299     H      0.685610000000     0.164800000000     0.071770000000     0.0438995  
H300     H      0.663930000000     0.210000000000     0.956500000000     0.040388   
H301     H      0.799120000000     0.765480000000     0.658250000000     0.0406655  
H302     H      0.735110000000     0.695050000000     0.658700000000     0.0421346  
H303     H      0.704880000000     0.698210000000     0.753510000000     0.0428886  
H304     H      0.796120000000     0.791300000000     0.753640000000     0.0429902  
H305     H      0.799530000000     0.762070000000     0.848830000000     0.0415163  
H306     H      0.700820000000     0.728010000000     0.848410000000     0.0414172  
H307     H      0.766680000000     0.793940000000     0.658360000000     0.0413699  
H308     H      0.702640000000     0.723470000000     0.657690000000     0.0388885  
H309     H      0.730320000000     0.696560000000     0.849290000000     0.0406962  
H310     H      0.769960000000     0.793470000000     0.849040000000     0.0405817  
H311     H      0.770970000000     0.792700000000     0.349430000000     0.0388851  
H312     H      0.701270000000     0.727740000000     0.348720000000     0.041349   
H313     H      0.704680000000     0.698350000000     0.253470000000     0.0429052  
H314     H      0.796230000000     0.791130000000     0.253590000000     0.0427875  
H315     H      0.765890000000     0.794500000000     0.158730000000     0.0420137  
H316     H      0.734440000000     0.695590000000     0.158320000000     0.0421376  
H317     H      0.800180000000     0.760990000000     0.348370000000     0.0421488  
H318     H      0.730530000000     0.696050000000     0.348890000000     0.040628   
H319     H      0.701960000000     0.724010000000     0.158010000000     0.0388232  
H320     H      0.798420000000     0.766140000000     0.157770000000     0.038901   
H321     H      0.573540000000     0.909330000000     0.572010000000     0.0456671  
H322     H      0.611900000000     0.949130000000     0.469790000000     0.0418823  
H323     H      0.658250000000     0.900120000000     0.441280000000     0.0442106  
H324     H      0.594310000000     0.836790000000     0.565370000000     0.0441151  
H325     H      0.657460000000     0.804420000000     0.566640000000     0.0393044  
H326     H      0.690520000000     0.837140000000     0.440110000000     0.0393903  
H327     H      0.545260000000     0.883160000000     0.536740000000     0.0417776  
H328     H      0.585480000000     0.921100000000     0.434540000000     0.0457083  
H329     H      0.709770000000     0.858120000000     0.489230000000     0.0437935  
H330     H      0.636380000000     0.785290000000     0.517500000000     0.0436434  
H331     H      0.784370000000     0.830730000000     0.549910000000     0.0408411  
H332     H      0.789850000000     0.824960000000     0.446040000000     0.0407403  
H333     H      0.858650000000     0.869420000000     0.414830000000     0.043984   
H334     H      0.849500000000     0.879030000000     0.584890000000     0.0443126  
H335     H      0.893930000000     0.942660000000     0.558420000000     0.044057   
H336     H      0.922210000000     0.898440000000     0.440390000000     0.0437714  
H337     H      0.823180000000     0.816640000000     0.572130000000     0.0438025  
H338     H      0.830320000000     0.808950000000     0.435850000000     0.0437515  
H339     H      0.900560000000     0.935910000000     0.435920000000     0.0432459  
H340     H      0.915320000000     0.905410000000     0.567220000000     0.0436105  
H341     H      0.916300000000     0.569300000000     0.434240000000     0.0453645  
H342     H      0.955160000000     0.605870000000     0.538200000000     0.0411887  
H343     H      0.905810000000     0.651750000000     0.566910000000     0.0443503  
H344     H      0.843640000000     0.590240000000     0.439620000000     0.0444092  
H345     H      0.811630000000     0.653260000000     0.439160000000     0.0409102  
H346     H      0.842680000000     0.683960000000     0.567450000000     0.0409092  
H347     H      0.889370000000     0.540840000000     0.468260000000     0.0412221  
H348     H      0.926400000000     0.579270000000     0.572250000000     0.0453886  
H349     H      0.864550000000     0.703850000000     0.519400000000     0.0460517  
H350     H      0.791580000000     0.631520000000     0.487170000000     0.0461434  
H351     H      0.591160000000     0.579100000000     0.439570000000     0.0435487  
H352     H      0.597990000000     0.572210000000     0.566050000000     0.0437107  
H353     H      0.626000000000     0.635880000000     0.592060000000     0.0439448  
H354     H      0.616550000000     0.645060000000     0.421980000000     0.0442846  
H355     H      0.678800000000     0.672320000000     0.435010000000     0.0439412  
H356     H      0.669690000000     0.705090000000     0.561090000000     0.0403629  
H357     H      0.553320000000     0.599810000000     0.447900000000     0.0442129  
H358     H      0.559970000000     0.593150000000     0.570800000000     0.043367   
H359     H      0.686390000000     0.665120000000     0.571410000000     0.0435858  
H360     H      0.664010000000     0.710590000000     0.457450000000     0.0407653  
H361     H      0.710430000000     0.857430000000     0.986590000000     0.0468017  
H362     H      0.657920000000     0.805560000000     0.066760000000     0.0396891  
H363     H      0.597190000000     0.841600000000     0.069770000000     0.043911   
H364     H      0.660230000000     0.902470000000     0.942810000000     0.0445677  
H365     H      0.618070000000     0.954170000000     0.975510000000     0.0417025  
H366     H      0.550350000000     0.891150000000     0.045440000000     0.0416509  
H367     H      0.688620000000     0.837260000000     0.938760000000     0.0404368  
H368     H      0.634840000000     0.787750000000     0.018340000000     0.0432482  
H369     H      0.581280000000     0.915540000000     0.078940000000     0.0453549  
H370     H      0.589130000000     0.928090000000     0.941110000000     0.0458643  
H371     H      0.836240000000     0.780270000000     0.956260000000     0.0403219  
H372     H      0.829910000000     0.784740000000     0.062020000000     0.0410695  
H373     H      0.877170000000     0.850040000000     0.094690000000     0.04405    
H374     H      0.887570000000     0.843330000000     0.924400000000     0.0443552  
H375     H      0.954720000000     0.882200000000     0.954370000000     0.0431078  
H376     H      0.911780000000     0.911470000000     0.072740000000     0.0445452  
H377     H      0.822810000000     0.819690000000     0.936000000000     0.0429866  
H378     H      0.814570000000     0.825380000000     0.071590000000     0.044002   
H379     H      0.947420000000     0.886840000000     0.075060000000     0.042158   
H380     H      0.919540000000     0.906500000000     0.944110000000     0.0444558  
H381     H      0.918850000000     0.574720000000     0.078940000000     0.0453625  
H382     H      0.882100000000     0.536130000000     0.975450000000     0.0416996  
H383     H      0.839950000000     0.587830000000     0.942760000000     0.0445648  
H384     H      0.902930000000     0.648660000000     0.069810000000     0.0439536  
H385     H      0.842200000000     0.684700000000     0.066770000000     0.0397482  
H386     H      0.811560000000     0.653050000000     0.938730000000     0.0404749  
H387     H      0.949780000000     0.599130000000     0.045470000000     0.0416746  
H388     H      0.911060000000     0.562230000000     0.941090000000     0.045864   
H389     H      0.789730000000     0.632850000000     0.986530000000     0.0468102  
H390     H      0.865310000000     0.702520000000     0.018380000000     0.0432856  
H391     H      0.580590000000     0.583890000000     0.944200000000     0.0444605  
H392     H      0.588310000000     0.578860000000     0.072850000000     0.0445808  
H393     H      0.622940000000     0.640190000000     0.094850000000     0.0440114  
H394     H      0.612570000000     0.647020000000     0.924560000000     0.0443335  
H395     H      0.677390000000     0.670610000000     0.936190000000     0.0431234  
H396     H      0.670250000000     0.705440000000     0.062280000000     0.0409579  
H397     H      0.545380000000     0.608140000000     0.954500000000     0.0430544  
H398     H      0.552640000000     0.603440000000     0.075160000000     0.0421068  
H399     H      0.685610000000     0.664800000000     0.071770000000     0.0438894  
H400     H      0.663930000000     0.710000000000     0.956500000000     0.0403874  
N1       N      0.250120000000     0.245060000000     0.870150000000    -0.180599   
N2       N      0.250970000000     0.244430000000     0.637000000000    -0.181138   
N3       N      0.250150000000     0.245100000000     0.136960000000    -0.181403   
N4       N      0.250790000000     0.244290000000     0.370100000000    -0.181098   
N5       N      0.184190000000     0.310610000000     0.503400000000    -0.176027   
N6       N      0.068380000000     0.426360000000     0.503270000000    -0.163524   
N7       N      0.422140000000     0.427690000000     0.501250000000    -0.16976    
N8       N      0.311110000000     0.302110000000     0.503560000000    -0.228501   
N9       N      0.317010000000     0.178730000000     0.503320000000    -0.176218   
N10      N      0.432380000000     0.063200000000     0.503250000000    -0.164646   
N11      N      0.193110000000     0.184280000000     0.503710000000    -0.228851   
N12      N      0.068480000000     0.072000000000     0.505290000000    -0.169705   
N13      N      0.074590000000     0.433500000000     0.011030000000    -0.163269   
N14      N      0.183210000000     0.310920000000     0.002280000000    -0.175276   
N15      N      0.440650000000     0.410890000000     0.011290000000    -0.169074   
N16      N      0.307690000000     0.306050000000     0.003920000000    -0.226873   
N17      N      0.316940000000     0.179360000000     0.002270000000    -0.175211   
N18      N      0.425570000000     0.056790000000     0.011020000000    -0.163295   
N19      N      0.192490000000     0.184210000000     0.004140000000    -0.226924   
N20      N      0.059470000000     0.079430000000     0.011370000000    -0.169054   
N21      N      0.250120000000     0.745060000000     0.870150000000    -0.180602   
N22      N      0.250970000000     0.744430000000     0.637000000000    -0.181127   
N23      N      0.250150000000     0.745100000000     0.136960000000    -0.181407   
N24      N      0.250790000000     0.744290000000     0.370100000000    -0.181113   
N25      N      0.184190000000     0.810610000000     0.503400000000    -0.176035   
N26      N      0.068380000000     0.926360000000     0.503270000000    -0.163539   
N27      N      0.422140000000     0.927690000000     0.501250000000    -0.169762   
N28      N      0.311110000000     0.802110000000     0.503560000000    -0.228503   
N29      N      0.317010000000     0.678730000000     0.503320000000    -0.176232   
N30      N      0.432380000000     0.563200000000     0.503250000000    -0.164665   
N31      N      0.193110000000     0.684280000000     0.503710000000    -0.228856   
N32      N      0.068480000000     0.572000000000     0.505290000000    -0.169728   
N33      N      0.074590000000     0.933500000000     0.011030000000    -0.163271   
N34      N      0.183210000000     0.810920000000     0.002280000000    -0.17524    
N35      N      0.440650000000     0.910890000000     0.011290000000    -0.169085   
N36      N      0.307690000000     0.806050000000     0.003920000000    -0.226882   
N37      N      0.316940000000     0.679360000000     0.002270000000    -0.175285   
N38      N      0.425570000000     0.556790000000     0.011020000000    -0.163312   
N39      N      0.192490000000     0.684210000000     0.004140000000    -0.226947   
N40      N      0.059470000000     0.579430000000     0.011370000000    -0.169124   
N41      N      0.750120000000     0.245060000000     0.870150000000    -0.180598   
N42      N      0.750960000000     0.244430000000     0.637000000000    -0.181137   
N43      N      0.750150000000     0.245100000000     0.136960000000    -0.181401   
N44      N      0.750790000000     0.244290000000     0.370100000000    -0.181084   
N45      N      0.684190000000     0.310610000000     0.503400000000    -0.17602    
N46      N      0.568380000000     0.426360000000     0.503270000000    -0.163519   
N47      N      0.922140000000     0.427690000000     0.501250000000    -0.16974    
N48      N      0.811110000000     0.302110000000     0.503560000000    -0.228504   
N49      N      0.817010000000     0.178730000000     0.503320000000    -0.176204   
N50      N      0.932380000000     0.063200000000     0.503250000000    -0.164626   
N51      N      0.693110000000     0.184280000000     0.503710000000    -0.228851   
N52      N      0.568480000000     0.072000000000     0.505290000000    -0.169699   
N53      N      0.574590000000     0.433500000000     0.011030000000    -0.163265   
N54      N      0.683210000000     0.310920000000     0.002280000000    -0.175278   
N55      N      0.940650000000     0.410890000000     0.011290000000    -0.169056   
N56      N      0.807690000000     0.306050000000     0.003920000000    -0.226876   
N57      N      0.816940000000     0.179360000000     0.002270000000    -0.175248   
N58      N      0.925570000000     0.056790000000     0.011020000000    -0.163279   
N59      N      0.692490000000     0.184210000000     0.004140000000    -0.226917   
N60      N      0.559470000000     0.079430000000     0.011370000000    -0.169045   
N61      N      0.750120000000     0.745060000000     0.870150000000    -0.180601   
N62      N      0.750960000000     0.744430000000     0.637000000000    -0.181138   
N63      N      0.750150000000     0.745100000000     0.136960000000    -0.181406   
N64      N      0.750790000000     0.744290000000     0.370100000000    -0.181112   
N65      N      0.684190000000     0.810610000000     0.503400000000    -0.176028   
N66      N      0.568380000000     0.926360000000     0.503270000000    -0.163534   
N67      N      0.922140000000     0.927690000000     0.501250000000    -0.169742   
N68      N      0.811110000000     0.802110000000     0.503560000000    -0.228506   
N69      N      0.817010000000     0.678730000000     0.503320000000    -0.176218   
N70      N      0.932380000000     0.563200000000     0.503250000000    -0.164645   
N71      N      0.693110000000     0.684280000000     0.503710000000    -0.228856   
N72      N      0.568480000000     0.572000000000     0.505290000000    -0.169722   
N73      N      0.574590000000     0.933500000000     0.011030000000    -0.163265   
N74      N      0.683210000000     0.810920000000     0.002280000000    -0.175239   
N75      N      0.940650000000     0.910890000000     0.011290000000    -0.169066   
N76      N      0.807690000000     0.806050000000     0.003920000000    -0.226882   
N77      N      0.816940000000     0.679360000000     0.002270000000    -0.175283   
N78      N      0.925570000000     0.556790000000     0.011020000000    -0.163296   
N79      N      0.692490000000     0.684210000000     0.004140000000    -0.226946   
N80      N      0.559470000000     0.579430000000     0.011370000000    -0.169115   
O1       O      0.041530000000     0.468500000000     0.973070000000    -0.387032   
O2       O      0.458650000000     0.021810000000     0.973060000000    -0.386869   
O3       O      0.029540000000     0.038070000000     0.972870000000    -0.402272   
O4       O      0.470630000000     0.452250000000     0.972830000000    -0.402341   
O5       O      0.466270000000     0.455270000000     0.049060000000    -0.402108   
O6       O      0.033880000000     0.035020000000     0.049100000000    -0.402004   
O7       O      0.463520000000     0.027440000000     0.048920000000    -0.390719   
O8       O      0.036630000000     0.462840000000     0.048920000000    -0.390784   
O9       O      0.037610000000     0.463230000000     0.465430000000    -0.390354   
O10      O      0.463360000000     0.026720000000     0.465320000000    -0.39207    
O11      O      0.035040000000     0.033920000000     0.465940000000    -0.405469   
O12      O      0.464890000000     0.456850000000     0.464400000000    -0.404663   
O13      O      0.460660000000     0.460680000000     0.540590000000    -0.40555    
O14      O      0.038830000000     0.029670000000     0.542130000000    -0.404463   
O15      O      0.468690000000     0.031990000000     0.541200000000    -0.392086   
O16      O      0.031620000000     0.457330000000     0.541110000000    -0.390354   
O17      O      0.272770000000     0.262500000000     0.938260000000    -0.476198   
O18      O      0.266530000000     0.268400000000     0.068860000000    -0.479382   
O19      O      0.303140000000     0.232990000000     0.011150000000    -0.46321    
O20      O      0.236820000000     0.296630000000     0.995110000000    -0.459347   
O21      O      0.197010000000     0.257290000000     0.011120000000    -0.463252   
O22      O      0.263330000000     0.193650000000     0.995080000000    -0.459305   
O23      O      0.233690000000     0.221910000000     0.068840000000    -0.479623   
O24      O      0.227360000000     0.227700000000     0.938240000000    -0.47616    
O25      O      0.273790000000     0.261100000000     0.438270000000    -0.478471   
O26      O      0.267820000000     0.267480000000     0.568930000000    -0.478089   
O27      O      0.302860000000     0.231960000000     0.512270000000    -0.462539   
O28      O      0.238000000000     0.296740000000     0.495940000000    -0.46669    
O29      O      0.198190000000     0.257080000000     0.511080000000    -0.466551   
O30      O      0.263490000000     0.192770000000     0.494690000000    -0.462873   
O31      O      0.234220000000     0.221470000000     0.568820000000    -0.478852   
O32      O      0.227730000000     0.227390000000     0.438170000000    -0.477949   
O33      O      0.041530000000     0.968500000000     0.973070000000    -0.387029   
O34      O      0.458650000000     0.521810000000     0.973060000000    -0.386988   
O35      O      0.029540000000     0.538070000000     0.972870000000    -0.402333   
O36      O      0.470630000000     0.952250000000     0.972830000000    -0.402354   
O37      O      0.466270000000     0.955260000000     0.049060000000    -0.402093   
O38      O      0.033880000000     0.535020000000     0.049100000000    -0.402071   
O39      O      0.463520000000     0.527440000000     0.048920000000    -0.390839   
O40      O      0.036630000000     0.962840000000     0.048920000000    -0.390761   
O41      O      0.037610000000     0.963230000000     0.465430000000    -0.390403   
O42      O      0.463360000000     0.526720000000     0.465320000000    -0.392248   
O43      O      0.035040000000     0.533920000000     0.465940000000    -0.405652   
O44      O      0.464890000000     0.956850000000     0.464400000000    -0.40471    
O45      O      0.460660000000     0.960680000000     0.540590000000    -0.405547   
O46      O      0.038830000000     0.529670000000     0.542130000000    -0.404597   
O47      O      0.468690000000     0.531990000000     0.541200000000    -0.392209   
O48      O      0.031620000000     0.957330000000     0.541110000000    -0.390351   
O49      O      0.272770000000     0.762500000000     0.938260000000    -0.476199   
O50      O      0.266530000000     0.768400000000     0.068860000000    -0.479386   
O51      O      0.303140000000     0.732990000000     0.011150000000    -0.463294   
O52      O      0.236820000000     0.796630000000     0.995110000000    -0.459291   
O53      O      0.197010000000     0.757280000000     0.011120000000    -0.463191   
O54      O      0.263340000000     0.693660000000     0.995080000000    -0.459536   
O55      O      0.233690000000     0.721910000000     0.068840000000    -0.479642   
O56      O      0.227360000000     0.727700000000     0.938240000000    -0.476175   
O57      O      0.273790000000     0.761090000000     0.438270000000    -0.478547   
O58      O      0.267820000000     0.767480000000     0.568930000000    -0.478088   
O59      O      0.302860000000     0.731960000000     0.512270000000    -0.462531   
O60      O      0.238000000000     0.796740000000     0.495940000000    -0.4667     
O61      O      0.198190000000     0.757080000000     0.511080000000    -0.466555   
O62      O      0.263490000000     0.692770000000     0.494690000000    -0.462875   
O63      O      0.234220000000     0.721470000000     0.568820000000    -0.478856   
O64      O      0.227730000000     0.727390000000     0.438170000000    -0.477985   
O65      O      0.541530000000     0.468500000000     0.973070000000    -0.387043   
O66      O      0.958650000000     0.021810000000     0.973060000000    -0.386751   
O67      O      0.529540000000     0.038070000000     0.972870000000    -0.402282   
O68      O      0.970630000000     0.452250000000     0.972830000000    -0.402211   
O69      O      0.966270000000     0.455270000000     0.049060000000    -0.401983   
O70      O      0.533880000000     0.035020000000     0.049100000000    -0.402018   
O71      O      0.963520000000     0.027440000000     0.048920000000    -0.390594   
O72      O      0.536630000000     0.462840000000     0.048920000000    -0.390793   
O73      O      0.537610000000     0.463230000000     0.465430000000    -0.390358   
O74      O      0.963360000000     0.026720000000     0.465320000000    -0.39194    
O75      O      0.535040000000     0.033920000000     0.465940000000    -0.405472   
O76      O      0.964890000000     0.456850000000     0.464400000000    -0.404524   
O77      O      0.960660000000     0.460680000000     0.540590000000    -0.40536    
O78      O      0.538830000000     0.029670000000     0.542130000000    -0.404418   
O79      O      0.968690000000     0.031990000000     0.541200000000    -0.391902   
O80      O      0.531620000000     0.457330000000     0.541110000000    -0.390306   
O81      O      0.772770000000     0.262500000000     0.938260000000    -0.4762     
O82      O      0.766530000000     0.268400000000     0.068860000000    -0.479384   
O83      O      0.803140000000     0.232990000000     0.011150000000    -0.463274   
O84      O      0.736820000000     0.296630000000     0.995110000000    -0.45935    
O85      O      0.697010000000     0.257290000000     0.011120000000    -0.463233   
O86      O      0.763340000000     0.193650000000     0.995080000000    -0.459372   
O87      O      0.733690000000     0.221910000000     0.068840000000    -0.479612   
O88      O      0.727360000000     0.227700000000     0.938240000000    -0.476149   
O89      O      0.773790000000     0.261100000000     0.438270000000    -0.478469   
O90      O      0.767820000000     0.267480000000     0.568930000000    -0.47809    
O91      O      0.802860000000     0.231960000000     0.512270000000    -0.462534   
O92      O      0.738000000000     0.296740000000     0.495940000000    -0.466689   
O93      O      0.698190000000     0.257080000000     0.511080000000    -0.466549   
O94      O      0.763490000000     0.192770000000     0.494690000000    -0.462873   
O95      O      0.734220000000     0.221470000000     0.568820000000    -0.47885    
O96      O      0.727730000000     0.227390000000     0.438170000000    -0.477948   
O97      O      0.541530000000     0.968500000000     0.973070000000    -0.38704    
O98      O      0.958650000000     0.521810000000     0.973060000000    -0.386869   
O99      O      0.529540000000     0.538070000000     0.972870000000    -0.402343   
O100     O      0.970630000000     0.952250000000     0.972830000000    -0.402225   
O101     O      0.966270000000     0.955260000000     0.049060000000    -0.401969   
O102     O      0.533880000000     0.535020000000     0.049100000000    -0.402085   
O103     O      0.963520000000     0.527440000000     0.048920000000    -0.390714   
O104     O      0.536630000000     0.962840000000     0.048920000000    -0.390769   
O105     O      0.537610000000     0.963230000000     0.465430000000    -0.390408   
O106     O      0.963360000000     0.526720000000     0.465320000000    -0.392118   
O107     O      0.535040000000     0.533920000000     0.465940000000    -0.405655   
O108     O      0.964890000000     0.956850000000     0.464400000000    -0.404571   
O109     O      0.960660000000     0.960680000000     0.540590000000    -0.405357   
O110     O      0.538830000000     0.529670000000     0.542130000000    -0.404551   
O111     O      0.968690000000     0.531990000000     0.541200000000    -0.392025   
O112     O      0.531620000000     0.957330000000     0.541110000000    -0.390303   
O113     O      0.772770000000     0.762500000000     0.938260000000    -0.476198   
O114     O      0.766530000000     0.768400000000     0.068860000000    -0.479386   
O115     O      0.803140000000     0.732990000000     0.011150000000    -0.463292   
O116     O      0.736820000000     0.796630000000     0.995110000000    -0.459291   
O117     O      0.697010000000     0.757280000000     0.011120000000    -0.463189   
O118     O      0.763340000000     0.693660000000     0.995080000000    -0.459537   
O119     O      0.733690000000     0.721910000000     0.068840000000    -0.479642   
O120     O      0.727360000000     0.727700000000     0.938240000000    -0.476174   
O121     O      0.773790000000     0.761090000000     0.438270000000    -0.478546   
O122     O      0.767820000000     0.767480000000     0.568930000000    -0.478091   
O123     O      0.802860000000     0.731960000000     0.512270000000    -0.462527   
O124     O      0.738000000000     0.796740000000     0.495940000000    -0.4667     
O125     O      0.698190000000     0.757080000000     0.511080000000    -0.466553   
O126     O      0.763490000000     0.692770000000     0.494690000000    -0.462874   
O127     O      0.734220000000     0.721470000000     0.568820000000    -0.478854   
O128     O      0.727730000000     0.727390000000     0.438170000000    -0.477985   


