data_structure

_audit_creation_method RASPA-1.0
_audit_creation_date 2023-5-23
_audit_author_name 'Poobodin Mano'

_cell_length_a    29.6717
_cell_length_b    29.6673
_cell_length_c    59.3109
_cell_angle_alpha 90
_cell_angle_beta  90
_cell_angle_gamma 90
_cell_volume      52210.2

_symmetry_cell_setting          triclinic
_symmetry_space_group_name_Hall 'P 1'
_symmetry_space_group_name_H-M  'P 1'
_symmetry_Int_Tables_number     1

_symmetry_equiv_pos_as_xyz 'x,y,z'

loop_
_atom_site_label
_atom_site_type_symbol
_atom_site_fract_x
_atom_site_fract_y
_atom_site_fract_z
_atom_site_charge
C1       C      0.997100000000     0.996920000000     0.077270000000     0.403029   
C2       C      0.997060000000     0.996860000000     0.166840000000     0.403625   
C3       C      0.993740000000     0.907370000000     0.122060000000     0.402919   
C4       C      0.000430000000     0.086400000000     0.122090000000     0.403261   
C5       C      0.997120000000     0.496940000000     0.077420000000     0.403025   
C6       C      0.997060000000     0.496840000000     0.166990000000     0.403636   
C7       C      0.000430000000     0.407370000000     0.122190000000     0.403257   
C8       C      0.993750000000     0.586400000000     0.122230000000     0.403038   
C9       C      0.496700000000     0.996780000000     0.166920000000     0.403679   
C10      C      0.496690000000     0.996860000000     0.077350000000     0.402981   
C11      C      0.493410000000     0.086330000000     0.122170000000     0.40313    
C12      C      0.499980000000     0.907300000000     0.122130000000     0.403077   
C13      C      0.496710000000     0.496770000000     0.077270000000     0.402834   
C14      C      0.496700000000     0.496870000000     0.166840000000     0.403942   
C15      C      0.493420000000     0.407300000000     0.122090000000     0.403012   
C16      C      0.499990000000     0.586330000000     0.122040000000     0.403153   
C17      C      0.997050000000     0.997310000000     0.916710000000     0.402988   
C18      C      0.996950000000     0.997220000000     0.827140000000     0.403451   
C19      C      0.993600000000     0.086790000000     0.871890000000     0.402848   
C20      C      0.000390000000     0.907760000000     0.871930000000     0.403117   
C21      C      0.997050000000     0.497250000000     0.916850000000     0.403011   
C22      C      0.996930000000     0.497300000000     0.827280000000     0.40388    
C23      C      0.000390000000     0.586790000000     0.872060000000     0.403307   
C24      C      0.993590000000     0.407760000000     0.872040000000     0.402863   
C25      C      0.496660000000     0.996710000000     0.916780000000     0.403215   
C26      C      0.496660000000     0.996670000000     0.827210000000     0.403694   
C27      C      0.500010000000     0.907170000000     0.872000000000     0.402879   
C28      C      0.493320000000     0.086200000000     0.871970000000     0.403013   
C29      C      0.496670000000     0.496650000000     0.916710000000     0.403052   
C30      C      0.496610000000     0.496730000000     0.827140000000     0.403994   
C31      C      0.499980000000     0.586200000000     0.871930000000     0.403033   
C32      C      0.493300000000     0.407170000000     0.871890000000     0.403096   
C33      C      0.996770000000     0.996580000000     0.327140000000     0.403644   
C34      C      0.996710000000     0.996550000000     0.416710000000     0.402784   
C35      C      0.907220000000     0.993250000000     0.371900000000     0.402791   
C36      C      0.086250000000     0.999880000000     0.371930000000     0.402645   
C37      C      0.996670000000     0.496910000000     0.327280000000     0.403697   
C38      C      0.996540000000     0.496900000000     0.416860000000     0.403031   
C39      C      0.907080000000     0.500230000000     0.372030000000     0.403017   
C40      C      0.086120000000     0.493580000000     0.372080000000     0.402996   
C41      C      0.496740000000     0.996590000000     0.327220000000     0.403945   
C42      C      0.496740000000     0.996570000000     0.416790000000     0.402932   
C43      C      0.407220000000     0.999870000000     0.371990000000     0.402557   
C44      C      0.586250000000     0.993280000000     0.371990000000     0.402735   
C45      C      0.496630000000     0.496920000000     0.327140000000     0.403899   
C46      C      0.496570000000     0.496930000000     0.416710000000     0.403163   
C47      C      0.407090000000     0.493630000000     0.371900000000     0.402986   
C48      C      0.586120000000     0.500210000000     0.371920000000     0.402906   
C49      C      0.996820000000     0.996750000000     0.666860000000     0.403706   
C50      C      0.996680000000     0.996620000000     0.577280000000     0.403049   
C51      C      0.086300000000     0.996060000000     0.622070000000     0.402989   
C52      C      0.907190000000     0.997300000000     0.622140000000     0.403114   
C53      C      0.996390000000     0.496930000000     0.667000000000     0.403784   
C54      C      0.996370000000     0.496900000000     0.577420000000     0.40326    
C55      C      0.085930000000     0.497530000000     0.622240000000     0.40327    
C56      C      0.906820000000     0.496290000000     0.622250000000     0.403177   
C57      C      0.496700000000     0.996660000000     0.666930000000     0.403717   
C58      C      0.496780000000     0.996620000000     0.577350000000     0.402894   
C59      C      0.407190000000     0.997210000000     0.622160000000     0.403019   
C60      C      0.586300000000     0.996080000000     0.622200000000     0.40305    
C61      C      0.496400000000     0.496860000000     0.666850000000     0.404087   
C62      C      0.496360000000     0.496900000000     0.577270000000     0.403106   
C63      C      0.406820000000     0.496320000000     0.622110000000     0.40322    
C64      C      0.585930000000     0.497450000000     0.622090000000     0.40323    
C65      C      0.659160000000     0.456470000000     0.621980000000    -0.0223611  
C66      C      0.833590000000     0.537250000000     0.622120000000    -0.0224225  
C67      C      0.833260000000     0.455320000000     0.622530000000    -0.0224466  
C68      C      0.786530000000     0.473210000000     0.622390000000     0.0137359  
C69      C      0.786760000000     0.519930000000     0.622290000000     0.0136726  
C70      C      0.746660000000     0.544900000000     0.622320000000    -0.0660844  
C71      C      0.659500000000     0.538400000000     0.622440000000    -0.0224407  
C72      C      0.746100000000     0.448810000000     0.622290000000    -0.0660518  
C73      C      0.706220000000     0.520500000000     0.622350000000     0.0137615  
C74      C      0.705980000000     0.473780000000     0.622210000000     0.0136154  
C75      C      0.159160000000     0.456560000000     0.622120000000    -0.0223647  
C76      C      0.333600000000     0.537310000000     0.622010000000    -0.022407   
C77      C      0.333240000000     0.455380000000     0.622460000000    -0.0224233  
C78      C      0.286530000000     0.473280000000     0.622360000000     0.0137365  
C79      C      0.286770000000     0.520000000000     0.622230000000     0.0136577  
C80      C      0.246670000000     0.544980000000     0.622310000000    -0.0660548  
C81      C      0.159500000000     0.538500000000     0.622530000000    -0.0225693  
C82      C      0.246090000000     0.448900000000     0.622330000000    -0.0660169  
C83      C      0.206230000000     0.520590000000     0.622400000000     0.013789   
C84      C      0.205980000000     0.473870000000     0.622290000000     0.013619   
C85      C      0.833960000000     0.956330000000     0.622060000000    -0.0223276  
C86      C      0.659520000000     0.037070000000     0.622070000000    -0.0223139  
C87      C      0.659880000000     0.955140000000     0.622530000000    -0.0224439  
C88      C      0.706600000000     0.973050000000     0.622410000000     0.0134708  
C89      C      0.706350000000     0.019770000000     0.622270000000     0.0139272  
C90      C      0.746450000000     0.044750000000     0.622300000000    -0.0662448  
C91      C      0.833620000000     0.038270000000     0.622460000000    -0.022517   
C92      C      0.747030000000     0.948670000000     0.622350000000    -0.0658649  
C93      C      0.786890000000     0.020360000000     0.622370000000     0.0140874  
C94      C      0.787140000000     0.973640000000     0.622270000000     0.0133195  
C95      C      0.159530000000     0.037010000000     0.621940000000    -0.0223521  
C96      C      0.333960000000     0.956230000000     0.622010000000    -0.0222822  
C97      C      0.333620000000     0.038160000000     0.622440000000    -0.0224087  
C98      C      0.286900000000     0.020260000000     0.622310000000     0.014061   
C99      C      0.287130000000     0.973540000000     0.622190000000     0.0133051  
C100     C      0.247020000000     0.948580000000     0.622240000000    -0.0658359  
C101     C      0.159860000000     0.955080000000     0.622380000000    -0.0223551  
C102     C      0.246460000000     0.044660000000     0.622230000000    -0.0662397  
C103     C      0.206590000000     0.972970000000     0.622280000000     0.0134234  
C104     C      0.206350000000     0.019690000000     0.622160000000     0.0139649  
C105     C      0.497310000000     0.537890000000     0.453440000000    -0.0224725  
C106     C      0.495430000000     0.455960000000     0.540540000000    -0.0224421  
C107     C      0.497320000000     0.537880000000     0.540550000000    -0.0224874  
C108     C      0.496920000000     0.520280000000     0.517140000000     0.0138158  
C109     C      0.495890000000     0.473570000000     0.517140000000     0.0137802  
C110     C      0.495430000000     0.448900000000     0.496990000000    -0.0659214  
C111     C      0.495750000000     0.455970000000     0.453430000000    -0.0224249  
C112     C      0.497460000000     0.544950000000     0.496990000000    -0.0659971  
C113     C      0.496010000000     0.473570000000     0.476840000000     0.0137568  
C114     C      0.496950000000     0.520280000000     0.476840000000     0.0138297  
C115     C      0.497730000000     0.955650000000     0.540630000000    -0.0223246  
C116     C      0.495960000000     0.037530000000     0.453510000000    -0.0223628  
C117     C      0.497530000000     0.955610000000     0.453520000000    -0.0223913  
C118     C      0.497230000000     0.973220000000     0.476920000000     0.0135016  
C119     C      0.496290000000     0.019940000000     0.476920000000     0.0140796  
C120     C      0.495760000000     0.044620000000     0.497070000000    -0.066185   
C121     C      0.495840000000     0.037560000000     0.540620000000    -0.0224421  
C122     C      0.497780000000     0.948560000000     0.497070000000    -0.0657833  
C123     C      0.496260000000     0.019950000000     0.517220000000     0.0141435  
C124     C      0.497300000000     0.973240000000     0.517220000000     0.0134401  
C125     C      0.996700000000     0.537870000000     0.453580000000    -0.022644   
C126     C      0.995820000000     0.455930000000     0.540690000000    -0.0226741  
C127     C      0.996930000000     0.537860000000     0.540690000000    -0.0225749  
C128     C      0.996670000000     0.520250000000     0.517290000000     0.0138006  
C129     C      0.996130000000     0.473540000000     0.517290000000     0.0138414  
C130     C      0.995980000000     0.448860000000     0.497140000000    -0.0660151  
C131     C      0.996290000000     0.455930000000     0.453580000000    -0.0225903  
C132     C      0.996870000000     0.544930000000     0.497140000000    -0.0660081  
C133     C      0.996290000000     0.473540000000     0.476990000000     0.0138022  
C134     C      0.996620000000     0.520260000000     0.476990000000     0.013819   
C135     C      0.834050000000     0.542620000000     0.370900000000    -0.0224804  
C136     C      0.659910000000     0.460790000000     0.373060000000    -0.0225485  
C137     C      0.659150000000     0.542600000000     0.370820000000    -0.0224544  
C138     C      0.706230000000     0.525370000000     0.371320000000     0.0131434  
C139     C      0.706410000000     0.478720000000     0.372590000000     0.0142514  
C140     C      0.746600000000     0.454130000000     0.373280000000    -0.0666853  
C141     C      0.833290000000     0.460810000000     0.373120000000    -0.0224801  
C142     C      0.746600000000     0.550070000000     0.370670000000    -0.0654539  
C143     C      0.786790000000     0.478730000000     0.372620000000     0.0142214  
C144     C      0.786970000000     0.525380000000     0.371360000000     0.0131639  
C145     C      0.334060000000     0.451240000000     0.370810000000    -0.022434   
C146     C      0.159910000000     0.533010000000     0.373190000000    -0.0225642  
C147     C      0.159160000000     0.451200000000     0.370960000000    -0.0224002  
C148     C      0.206230000000     0.468450000000     0.371400000000     0.0130953  
C149     C      0.206410000000     0.515090000000     0.372670000000     0.0142764  
C150     C      0.246600000000     0.539700000000     0.373310000000    -0.0667111  
C151     C      0.333290000000     0.533050000000     0.373050000000    -0.0225228  
C152     C      0.246610000000     0.443770000000     0.370690000000    -0.0653354  
C153     C      0.286790000000     0.515120000000     0.372610000000     0.0142684  
C154     C      0.286980000000     0.468470000000     0.371330000000     0.0131012  
C155     C      0.996090000000     0.037550000000     0.540540000000    -0.0226395  
C156     C      0.996880000000     0.955580000000     0.453440000000    -0.0225405  
C157     C      0.996470000000     0.037520000000     0.453440000000    -0.022625   
C158     C      0.996490000000     0.019920000000     0.476840000000     0.014147   
C159     C      0.996830000000     0.973190000000     0.476850000000     0.0134826  
C160     C      0.997100000000     0.948530000000     0.497000000000    -0.0658043  
C161     C      0.997200000000     0.955620000000     0.540560000000    -0.0224845  
C162     C      0.996210000000     0.044600000000     0.496990000000    -0.066212   
C163     C      0.996910000000     0.973210000000     0.517150000000     0.0134555  
C164     C      0.996380000000     0.019930000000     0.517140000000     0.0141686  
C165     C      0.659280000000     0.950890000000     0.370860000000    -0.0224008  
C166     C      0.833430000000     0.032670000000     0.373020000000    -0.022579   
C167     C      0.834180000000     0.950860000000     0.370800000000    -0.0223705  
C168     C      0.787100000000     0.968100000000     0.371290000000     0.0128093  
C169     C      0.786930000000     0.014750000000     0.372560000000     0.0145748  
C170     C      0.746740000000     0.039350000000     0.373250000000    -0.0668595  
C171     C      0.660050000000     0.032700000000     0.373100000000    -0.0225914  
C172     C      0.746730000000     0.943420000000     0.370630000000    -0.0652167  
C173     C      0.706550000000     0.014770000000     0.372600000000     0.0145905  
C174     C      0.706360000000     0.968120000000     0.371320000000     0.0128051  
C175     C      0.160040000000     0.960460000000     0.373050000000    -0.0226076  
C176     C      0.334190000000     0.042250000000     0.370870000000    -0.0224899  
C177     C      0.333420000000     0.960450000000     0.373100000000    -0.0226537  
C178     C      0.286930000000     0.978370000000     0.372610000000     0.0139773  
C179     C      0.287110000000     0.025020000000     0.371340000000     0.0134247  
C180     C      0.246740000000     0.049720000000     0.370660000000    -0.0655681  
C181     C      0.159290000000     0.042270000000     0.370840000000    -0.0224962  
C182     C      0.246730000000     0.953790000000     0.373270000000    -0.0665056  
C183     C      0.206370000000     0.025030000000     0.371320000000     0.0134388  
C184     C      0.206540000000     0.978380000000     0.372590000000     0.0139651  
C185     C      0.528890000000     0.471570000000     0.790490000000    -0.0228917  
C186     C      0.472410000000     0.530030000000     0.703500000000    -0.0229235  
C187     C      0.520490000000     0.463650000000     0.703470000000    -0.022787   
C188     C      0.511510000000     0.478930000000     0.726860000000     0.0142164  
C189     C      0.481470000000     0.514720000000     0.726880000000     0.014309   
C190     C      0.463160000000     0.531380000000     0.747010000000    -0.0661865  
C191     C      0.464260000000     0.521980000000     0.790520000000    -0.0228807  
C192     C      0.529880000000     0.462240000000     0.746980000000    -0.0661816  
C193     C      0.479210000000     0.512450000000     0.767130000000     0.0142554  
C194     C      0.513890000000     0.481150000000     0.767110000000     0.0142806  
C195     C      0.528970000000     0.021870000000     0.790590000000    -0.0227187  
C196     C      0.472640000000     0.963480000000     0.703560000000    -0.0227495  
C197     C      0.520710000000     0.029870000000     0.703560000000    -0.0228131  
C198     C      0.511690000000     0.014570000000     0.726950000000     0.0145311  
C199     C      0.481660000000     0.978780000000     0.726950000000     0.0139441  
C200     C      0.463320000000     0.962100000000     0.747070000000    -0.0659585  
C201     C      0.464360000000     0.971460000000     0.790580000000    -0.0227577  
C202     C      0.530020000000     0.031240000000     0.747080000000    -0.0662867  
C203     C      0.479330000000     0.981010000000     0.767200000000     0.0139342  
C204     C      0.514010000000     0.012320000000     0.767200000000     0.0145316  
C205     C      0.460590000000     0.660000000000     0.873100000000    -0.0226057  
C206     C      0.542400000000     0.834140000000     0.870860000000    -0.0223876  
C207     C      0.460610000000     0.833380000000     0.873150000000    -0.0225209  
C208     C      0.478530000000     0.786880000000     0.872650000000     0.0143128  
C209     C      0.525170000000     0.787060000000     0.871340000000     0.0130474  
C210     C      0.549850000000     0.746680000000     0.870630000000    -0.0653827  
C211     C      0.542380000000     0.659230000000     0.870810000000    -0.0223851  
C212     C      0.453940000000     0.746690000000     0.873320000000    -0.0667187  
C213     C      0.525160000000     0.706310000000     0.871310000000     0.0130505  
C214     C      0.478520000000     0.706500000000     0.872620000000     0.0143392  
C215     C      0.450920000000     0.159230000000     0.870820000000    -0.0223848  
C216     C      0.532700000000     0.333380000000     0.873030000000    -0.0224962  
C217     C      0.450910000000     0.334140000000     0.870760000000    -0.0223257  
C218     C      0.468140000000     0.287060000000     0.871260000000     0.0130413  
C219     C      0.514780000000     0.286880000000     0.872560000000     0.0143063  
C220     C      0.539370000000     0.246690000000     0.873260000000    -0.0667019  
C221     C      0.532710000000     0.160000000000     0.873100000000    -0.0225276  
C222     C      0.443450000000     0.246680000000     0.870590000000    -0.0653796  
C223     C      0.514780000000     0.206500000000     0.872590000000     0.0143158  
C224     C      0.468140000000     0.206310000000     0.871290000000     0.0130655  
C225     C      0.020500000000     0.463790000000     0.703630000000    -0.0228292  
C226     C      0.964530000000     0.522470000000     0.790660000000    -0.0228081  
C227     C      0.029150000000     0.472050000000     0.790640000000    -0.0228117  
C228     C      0.014080000000     0.481530000000     0.767260000000     0.0144584  
C229     C      0.979400000000     0.512830000000     0.767270000000     0.0140332  
C230     C      0.963300000000     0.531690000000     0.747150000000    -0.0660018  
C231     C      0.972430000000     0.530170000000     0.703630000000    -0.0227221  
C232     C      0.030000000000     0.462540000000     0.747130000000    -0.0662664  
C233     C      0.981540000000     0.514940000000     0.727020000000     0.0139862  
C234     C      0.011580000000     0.479160000000     0.727020000000     0.014503   
C235     C      0.029230000000     0.022330000000     0.790480000000    -0.0228653  
C236     C      0.972850000000     0.963640000000     0.703520000000    -0.022668   
C237     C      0.020920000000     0.030020000000     0.703460000000    -0.0228262  
C238     C      0.011920000000     0.014790000000     0.726860000000     0.0148523  
C239     C      0.981880000000     0.979000000000     0.726890000000     0.0136643  
C240     C      0.963550000000     0.962400000000     0.747030000000    -0.0658145  
C241     C      0.964610000000     0.971920000000     0.790530000000    -0.0226535  
C242     C      0.030270000000     0.031540000000     0.746960000000    -0.066521   
C243     C      0.979580000000     0.981380000000     0.767140000000     0.0136668  
C244     C      0.014260000000     0.012690000000     0.767110000000     0.0148337  
C245     C      0.042810000000     0.659810000000     0.870920000000    -0.022393   
C246     C      0.961020000000     0.833960000000     0.873110000000    -0.0226126  
C247     C      0.042810000000     0.834730000000     0.870830000000    -0.0223607  
C248     C      0.025590000000     0.787650000000     0.871340000000     0.0132297  
C249     C      0.978950000000     0.787470000000     0.872640000000     0.014148   
C250     C      0.954370000000     0.747280000000     0.873350000000    -0.0666367  
C251     C      0.961020000000     0.660600000000     0.873200000000    -0.0226588  
C252     C      0.050280000000     0.747270000000     0.870680000000    -0.0654816  
C253     C      0.978950000000     0.707090000000     0.872690000000     0.0141608  
C254     C      0.025590000000     0.706900000000     0.871390000000     0.0132405  
C255     C      0.951180000000     0.159810000000     0.870800000000    -0.0222889  
C256     C      0.032970000000     0.333960000000     0.873130000000    -0.0225276  
C257     C      0.951170000000     0.334740000000     0.870910000000    -0.0223042  
C258     C      0.968400000000     0.287650000000     0.871350000000     0.0127888  
C259     C      0.015040000000     0.287470000000     0.872620000000     0.014579   
C260     C      0.039630000000     0.247280000000     0.873260000000    -0.0668701  
C261     C      0.032980000000     0.160590000000     0.873020000000    -0.0225682  
C262     C      0.943710000000     0.247280000000     0.870650000000    -0.0651966  
C263     C      0.015050000000     0.207080000000     0.872570000000     0.0145874  
C264     C      0.968400000000     0.206900000000     0.871300000000     0.01278    
C265     C      0.464000000000     0.521600000000     0.203470000000    -0.0228226  
C266     C      0.521350000000     0.464220000000     0.290510000000    -0.0228322  
C267     C      0.471950000000     0.529620000000     0.290500000000    -0.022825   
C268     C      0.481310000000     0.514520000000     0.267110000000     0.0142372  
C269     C      0.512020000000     0.479320000000     0.267120000000     0.0142312  
C270     C      0.530650000000     0.462950000000     0.247000000000    -0.0660861  
C271     C      0.529400000000     0.472200000000     0.203480000000    -0.0227848  
C272     C      0.462700000000     0.530880000000     0.246980000000    -0.0661622  
C273     C      0.514290000000     0.481550000000     0.226870000000     0.0141971  
C274     C      0.479090000000     0.512260000000     0.226860000000     0.0142697  
C275     C      0.537660000000     0.497200000000     0.040540000000    -0.0224292  
C276     C      0.455720000000     0.496160000000     0.953440000000    -0.0225257  
C277     C      0.537640000000     0.497130000000     0.953430000000    -0.0224335  
C278     C      0.520050000000     0.496930000000     0.976830000000     0.0137842  
C279     C      0.473330000000     0.496380000000     0.976840000000     0.0138464  
C280     C      0.448670000000     0.496110000000     0.996990000000    -0.0660145  
C281     C      0.455740000000     0.496240000000     0.040540000000    -0.0225283  
C282     C      0.544730000000     0.497240000000     0.996980000000    -0.0659774  
C283     C      0.473340000000     0.496420000000     0.017140000000     0.0138501  
C284     C      0.520060000000     0.496970000000     0.017140000000     0.0137528  
C285     C      0.521450000000     0.029310000000     0.290590000000    -0.0227794  
C286     C      0.464010000000     0.972030000000     0.203550000000    -0.022753   
C287     C      0.529410000000     0.021420000000     0.203560000000    -0.022739   
C288     C      0.514330000000     0.012040000000     0.226950000000     0.0145285  
C289     C      0.479120000000     0.981340000000     0.226940000000     0.0139239  
C290     C      0.462750000000     0.962700000000     0.247060000000    -0.0659402  
C291     C      0.472040000000     0.963920000000     0.290570000000    -0.0227437  
C292     C      0.530710000000     0.030630000000     0.247080000000    -0.0663182  
C293     C      0.481380000000     0.979040000000     0.267190000000     0.013913   
C294     C      0.512100000000     0.014240000000     0.267200000000     0.0145587  
C295     C      0.537630000000     0.996270000000     0.953510000000    -0.0226964  
C296     C      0.455720000000     0.997340000000     0.040620000000    -0.0227109  
C297     C      0.537640000000     0.996370000000     0.040620000000    -0.0226985  
C298     C      0.520040000000     0.996560000000     0.017220000000     0.0138462  
C299     C      0.473320000000     0.997110000000     0.017220000000     0.0138206  
C300     C      0.448640000000     0.997380000000     0.997070000000    -0.0660302  
C301     C      0.455710000000     0.997240000000     0.953510000000    -0.0226601  
C302     C      0.544710000000     0.996240000000     0.997070000000    -0.0660849  
C303     C      0.473310000000     0.997060000000     0.976920000000     0.013803   
C304     C      0.520020000000     0.996510000000     0.976920000000     0.0138335  
C305     C      0.460560000000     0.833510000000     0.120970000000    -0.0225366  
C306     C      0.542370000000     0.659370000000     0.123160000000    -0.0224703  
C307     C      0.460570000000     0.660120000000     0.120910000000    -0.0225051  
C308     C      0.478490000000     0.706620000000     0.121400000000     0.0142341  
C309     C      0.525130000000     0.706450000000     0.122690000000     0.0131597  
C310     C      0.549820000000     0.746820000000     0.123380000000    -0.0654338  
C311     C      0.542360000000     0.834270000000     0.123220000000    -0.0223857  
C312     C      0.453900000000     0.746820000000     0.120740000000    -0.0666807  
C313     C      0.525130000000     0.787190000000     0.122720000000     0.0131282  
C314     C      0.478480000000     0.787010000000     0.121430000000     0.0142652  
C315     C      0.532840000000     0.160120000000     0.121040000000    -0.0225357  
C316     C      0.451040000000     0.334270000000     0.123240000000    -0.0224094  
C317     C      0.532840000000     0.333510000000     0.120990000000    -0.022574   
C318     C      0.514920000000     0.287010000000     0.121490000000     0.0142679  
C319     C      0.468280000000     0.287190000000     0.122770000000     0.0131403  
C320     C      0.443580000000     0.246820000000     0.123460000000    -0.0654355  
C321     C      0.451040000000     0.159370000000     0.123290000000    -0.022459   
C322     C      0.539500000000     0.246820000000     0.120830000000    -0.0666473  
C323     C      0.468270000000     0.206450000000     0.122800000000     0.0131661  
C324     C      0.514920000000     0.206620000000     0.121520000000     0.0142384  
C325     C      0.029700000000     0.521520000000     0.203640000000    -0.0227802  
C326     C      0.972070000000     0.464180000000     0.290640000000    -0.0227185  
C327     C      0.021440000000     0.529600000000     0.290660000000    -0.0227251  
C328     C      0.012180000000     0.514470000000     0.267270000000     0.0144219  
C329     C      0.981480000000     0.479260000000     0.267250000000     0.0140055  
C330     C      0.962940000000     0.462860000000     0.247120000000    -0.0659719  
C331     C      0.964320000000     0.472100000000     0.203610000000    -0.022762   
C332     C      0.030850000000     0.530820000000     0.247150000000    -0.0662057  
C333     C      0.979360000000     0.481460000000     0.227000000000     0.0140057  
C334     C      0.014550000000     0.512180000000     0.227020000000     0.0144579  
C335     C      0.956160000000     0.497100000000     0.040690000000    -0.022403   
C336     C      0.038050000000     0.497310000000     0.953570000000    -0.0224802  
C337     C      0.956120000000     0.497110000000     0.953590000000    -0.0224263  
C338     C      0.973740000000     0.497130000000     0.976990000000     0.0135827  
C339     C      0.020450000000     0.497190000000     0.976980000000     0.0140192  
C340     C      0.045140000000     0.497110000000     0.997130000000    -0.066093   
C341     C      0.038080000000     0.496910000000     0.040690000000    -0.022395   
C342     C      0.949070000000     0.497100000000     0.997140000000    -0.0658551  
C343     C      0.020470000000     0.497040000000     0.017280000000     0.0139909  
C344     C      0.973760000000     0.497080000000     0.017290000000     0.0135684  
C345     C      0.964330000000     0.021520000000     0.203480000000    -0.0227207  
C346     C      0.021490000000     0.963910000000     0.290500000000    -0.022706   
C347     C      0.972130000000     0.029330000000     0.290500000000    -0.0226958  
C348     C      0.981520000000     0.014280000000     0.267120000000     0.0143099  
C349     C      0.012210000000     0.979060000000     0.267120000000     0.0141343  
C350     C      0.030870000000     0.962730000000     0.246990000000    -0.0660527  
C351     C      0.029700000000     0.972100000000     0.203480000000    -0.0226843  
C352     C      0.962960000000     0.030700000000     0.246990000000    -0.0661539  
C353     C      0.014560000000     0.981390000000     0.226870000000     0.0141294  
C354     C      0.979370000000     0.012120000000     0.226860000000     0.0143149  
C355     C      0.956110000000     0.997390000000     0.953440000000    -0.0226472  
C356     C      0.038070000000     0.997090000000     0.040540000000    -0.0226675  
C357     C      0.956140000000     0.996910000000     0.040550000000    -0.0226368  
C358     C      0.973740000000     0.997060000000     0.017140000000     0.0135733  
C359     C      0.020460000000     0.997110000000     0.017140000000     0.0140632  
C360     C      0.045130000000     0.997150000000     0.996990000000    -0.0661687  
C361     C      0.038040000000     0.997190000000     0.953430000000    -0.0226619  
C362     C      0.949060000000     0.997150000000     0.996990000000    -0.0659174  
C363     C      0.020440000000     0.997190000000     0.976840000000     0.0140303  
C364     C      0.973730000000     0.997250000000     0.976840000000     0.013619   
C365     C      0.033150000000     0.660200000000     0.121110000000    -0.0224937  
C366     C      0.951340000000     0.834340000000     0.123180000000    -0.0223176  
C367     C      0.033140000000     0.833570000000     0.120970000000    -0.0225361  
C368     C      0.015220000000     0.787080000000     0.121480000000     0.0144985  
C369     C      0.968570000000     0.787260000000     0.122740000000     0.0128873  
C370     C      0.943880000000     0.746890000000     0.123440000000    -0.0652885  
C371     C      0.951350000000     0.659430000000     0.123310000000    -0.0223764  
C372     C      0.039810000000     0.746880000000     0.120860000000    -0.0668332  
C373     C      0.968570000000     0.706510000000     0.122810000000     0.0128938  
C374     C      0.015220000000     0.706690000000     0.121550000000     0.0144992  
C375     C      0.961040000000     0.160200000000     0.120990000000    -0.0225103  
C376     C      0.042830000000     0.334340000000     0.123280000000    -0.0224271  
C377     C      0.961040000000     0.333570000000     0.121050000000    -0.0225243  
C378     C      0.978960000000     0.287080000000     0.121510000000     0.0140355  
C379     C      0.025610000000     0.287260000000     0.122780000000     0.0133514  
C380     C      0.050300000000     0.246880000000     0.123440000000    -0.0655494  
C381     C      0.042830000000     0.159430000000     0.123210000000    -0.022439   
C382     C      0.954380000000     0.246890000000     0.120830000000    -0.0665204  
C383     C      0.025610000000     0.206510000000     0.122750000000     0.0133725  
C384     C      0.978960000000     0.206690000000     0.121480000000     0.0140171  
Cu1      Cu     0.038740000000     0.995080000000     0.122080000000     0.844162   
Cu2      Cu     0.955430000000     0.998700000000     0.122070000000     0.844084   
Cu3      Cu     0.038750000000     0.498690000000     0.122230000000     0.844469   
Cu4      Cu     0.955430000000     0.495080000000     0.122220000000     0.844242   
Cu5      Cu     0.538350000000     0.998600000000     0.122150000000     0.844055   
Cu6      Cu     0.455040000000     0.995040000000     0.122160000000     0.844215   
Cu7      Cu     0.538360000000     0.495040000000     0.122080000000     0.84444    
Cu8      Cu     0.455050000000     0.498600000000     0.122080000000     0.844317   
Cu9      Cu     0.038660000000     0.999110000000     0.871890000000     0.844043   
Cu10     Cu     0.955340000000     0.995440000000     0.871910000000     0.844132   
Cu11     Cu     0.038650000000     0.495440000000     0.872030000000     0.844509   
Cu12     Cu     0.955340000000     0.499120000000     0.872060000000     0.844111   
Cu13     Cu     0.455010000000     0.994880000000     0.871980000000     0.844003   
Cu14     Cu     0.538320000000     0.998500000000     0.871980000000     0.843885   
Cu15     Cu     0.538290000000     0.494880000000     0.871890000000     0.844416   
Cu16     Cu     0.454980000000     0.498500000000     0.871910000000     0.844294   
Cu17     Cu     0.998540000000     0.954900000000     0.371900000000     0.843745   
Cu18     Cu     0.994930000000     0.038230000000     0.371910000000     0.844232   
Cu19     Cu     0.994800000000     0.455240000000     0.372050000000     0.844054   
Cu20     Cu     0.998410000000     0.538570000000     0.372050000000     0.843923   
Cu21     Cu     0.494960000000     0.954910000000     0.371980000000     0.84389    
Cu22     Cu     0.498510000000     0.038240000000     0.371980000000     0.844302   
Cu23     Cu     0.498370000000     0.455260000000     0.371900000000     0.844239   
Cu24     Cu     0.494830000000     0.538590000000     0.371900000000     0.844156   
Cu25     Cu     0.996030000000     0.954970000000     0.622100000000     0.844113   
Cu26     Cu     0.997460000000     0.038390000000     0.622070000000     0.844718   
Cu27     Cu     0.997090000000     0.455200000000     0.622240000000     0.844495   
Cu28     Cu     0.995670000000     0.538620000000     0.622230000000     0.844535   
Cu29     Cu     0.497420000000     0.038350000000     0.622160000000     0.844912   
Cu30     Cu     0.496060000000     0.954930000000     0.622170000000     0.844333   
Cu31     Cu     0.495700000000     0.538590000000     0.622090000000     0.844608   
Cu32     Cu     0.497060000000     0.455170000000     0.622080000000     0.844748   
H1       H      0.839880000000     0.434130000000     0.607440000000     0.0435451  
H2       H      0.840230000000     0.557680000000     0.606770000000     0.0443275  
H3       H      0.746910000000     0.581380000000     0.622320000000     0.0442287  
H4       H      0.745850000000     0.412330000000     0.622260000000     0.0442124  
H5       H      0.652590000000     0.436100000000     0.606590000000     0.044286   
H6       H      0.652910000000     0.558790000000     0.637810000000     0.0439126  
H7       H      0.839770000000     0.434900000000     0.637900000000     0.043881   
H8       H      0.840440000000     0.558350000000     0.637220000000     0.0435115  
H9       H      0.652960000000     0.559620000000     0.607340000000     0.0435398  
H10      H      0.652230000000     0.435320000000     0.637050000000     0.0435052  
H11      H      0.339790000000     0.434170000000     0.607360000000     0.0435405  
H12      H      0.340180000000     0.557690000000     0.606630000000     0.044305   
H13      H      0.246920000000     0.581470000000     0.622280000000     0.0442087  
H14      H      0.245830000000     0.412410000000     0.622320000000     0.0442038  
H15      H      0.152520000000     0.436140000000     0.606760000000     0.0443232  
H16      H      0.152980000000     0.558910000000     0.637890000000     0.0439529  
H17      H      0.339830000000     0.434980000000     0.637830000000     0.0439056  
H18      H      0.340530000000     0.558440000000     0.637090000000     0.0435256  
H19      H      0.152900000000     0.559680000000     0.607430000000     0.0435872  
H20      H      0.152290000000     0.435460000000     0.637220000000     0.0435148  
H21      H      0.653330000000     0.934760000000     0.637910000000     0.0438858  
H22      H      0.652630000000     0.058210000000     0.637150000000     0.0435169  
H23      H      0.746190000000     0.081230000000     0.622270000000     0.0442697  
H24      H      0.747290000000     0.912180000000     0.622340000000     0.0441517  
H25      H      0.840870000000     0.935240000000     0.637160000000     0.0434819  
H26      H      0.840180000000     0.059440000000     0.607350000000     0.0435907  
H27      H      0.653300000000     0.933910000000     0.607450000000     0.0435482  
H28      H      0.652900000000     0.057450000000     0.606690000000     0.0443254  
H29      H      0.840190000000     0.058700000000     0.637810000000     0.0439439  
H30      H      0.840550000000     0.935900000000     0.606710000000     0.0443019  
H31      H      0.340140000000     0.058570000000     0.637820000000     0.0439269  
H32      H      0.340830000000     0.935110000000     0.637110000000     0.0434614  
H33      H      0.247270000000     0.912090000000     0.622220000000     0.0441468  
H34      H      0.246220000000     0.081140000000     0.622210000000     0.0442811  
H35      H      0.152630000000     0.058150000000     0.637020000000     0.0435512  
H36      H      0.153290000000     0.933880000000     0.607280000000     0.0435116  
H37      H      0.340220000000     0.059360000000     0.607350000000     0.0435725  
H38      H      0.340600000000     0.935830000000     0.606650000000     0.044279   
H39      H      0.153290000000     0.934670000000     0.637750000000     0.0438861  
H40      H      0.152940000000     0.057400000000     0.606570000000     0.0443394  
H41      H      0.467360000000     0.559360000000     0.543880000000     0.0438557  
H42      H      0.464490000000     0.435900000000     0.543850000000     0.0439675  
H43      H      0.494660000000     0.412410000000     0.496990000000     0.0442135  
H44      H      0.498230000000     0.581430000000     0.496990000000     0.0442477  
H45      H      0.467260000000     0.559240000000     0.450100000000     0.0438668  
H46      H      0.525800000000     0.434620000000     0.450120000000     0.0438653  
H47      H      0.528240000000     0.557940000000     0.543880000000     0.0439987  
H48      H      0.525360000000     0.434460000000     0.543890000000     0.0438456  
H49      H      0.464930000000     0.435760000000     0.450080000000     0.0439495  
H50      H      0.528140000000     0.558100000000     0.450110000000     0.0439629  
H51      H      0.467470000000     0.934260000000     0.450200000000     0.0438318  
H52      H      0.465130000000     0.057740000000     0.450180000000     0.0439602  
H53      H      0.494980000000     0.081090000000     0.497060000000     0.0443159  
H54      H      0.498550000000     0.912080000000     0.497080000000     0.0441863  
H55      H      0.467790000000     0.934150000000     0.543970000000     0.0438031  
H56      H      0.525790000000     0.059050000000     0.543950000000     0.0438699  
H57      H      0.528350000000     0.935400000000     0.450180000000     0.0439326  
H58      H      0.526010000000     0.058890000000     0.450180000000     0.0438728  
H59      H      0.464920000000     0.057630000000     0.543950000000     0.044009   
H60      H      0.528660000000     0.935590000000     0.543950000000     0.0439387  
H61      H      0.966790000000     0.559080000000     0.544030000000     0.0438363  
H62      H      0.965070000000     0.435590000000     0.544000000000     0.0440376  
H63      H      0.995640000000     0.412370000000     0.497140000000     0.0442169  
H64      H      0.997210000000     0.581420000000     0.497140000000     0.0442136  
H65      H      0.966340000000     0.558780000000     0.450260000000     0.0440794  
H66      H      0.026660000000     0.435020000000     0.450280000000     0.0441838  
H67      H      0.027680000000     0.558210000000     0.544020000000     0.0441369  
H68      H      0.025950000000     0.434710000000     0.544050000000     0.0439743  
H69      H      0.965770000000     0.435270000000     0.450220000000     0.043784   
H70      H      0.027220000000     0.558520000000     0.450250000000     0.0439205  
H71      H      0.652320000000     0.561620000000     0.355050000000     0.0437726  
H72      H      0.653510000000     0.438300000000     0.358420000000     0.0437144  
H73      H      0.746600000000     0.417700000000     0.374270000000     0.0441329  
H74      H      0.746600000000     0.586490000000     0.369670000000     0.0443425  
H75      H      0.840930000000     0.561660000000     0.355140000000     0.0437672  
H76      H      0.839720000000     0.441630000000     0.388900000000     0.0441901  
H77      H      0.652250000000     0.564940000000     0.385460000000     0.043659   
H78      H      0.653440000000     0.441630000000     0.388840000000     0.0442415  
H79      H      0.839740000000     0.438320000000     0.358480000000     0.0437239  
H80      H      0.840910000000     0.564940000000     0.385550000000     0.0436592  
H81      H      0.152320000000     0.428880000000     0.385620000000     0.0436528  
H82      H      0.153490000000     0.552170000000     0.388970000000     0.0442349  
H83      H      0.246590000000     0.576130000000     0.374300000000     0.0441447  
H84      H      0.246620000000     0.407330000000     0.369690000000     0.0442962  
H85      H      0.340990000000     0.428900000000     0.385450000000     0.0436494  
H86      H      0.339670000000     0.555540000000     0.358400000000     0.0437111  
H87      H      0.152260000000     0.432160000000     0.355200000000     0.0437738  
H88      H      0.153440000000     0.555500000000     0.358550000000     0.0437536  
H89      H      0.339780000000     0.552220000000     0.388820000000     0.0442358  
H90      H      0.340870000000     0.432230000000     0.355030000000     0.0437771  
H91      H      0.026840000000     0.058430000000     0.450130000000     0.0442247  
H92      H      0.027410000000     0.934920000000     0.450100000000     0.0438677  
H93      H      0.997440000000     0.912040000000     0.497000000000     0.0441569  
H94      H      0.995870000000     0.081090000000     0.496980000000     0.0442722  
H95      H      0.026220000000     0.058780000000     0.543890000000     0.0440021  
H96      H      0.967060000000     0.934410000000     0.543910000000     0.0438029  
H97      H      0.965950000000     0.058170000000     0.450080000000     0.0438291  
H98      H      0.966520000000     0.934670000000     0.450120000000     0.0440376  
H99      H      0.027950000000     0.935280000000     0.543870000000     0.0441034  
H100     H      0.965340000000     0.057890000000     0.543850000000     0.0440633  
H101     H      0.841010000000     0.931830000000     0.355030000000     0.0437278  
H102     H      0.839840000000     0.055150000000     0.358380000000     0.0437762  
H103     H      0.746750000000     0.075790000000     0.374240000000     0.0441686  
H104     H      0.746720000000     0.906990000000     0.369630000000     0.0442617  
H105     H      0.652400000000     0.931880000000     0.355090000000     0.0437605  
H106     H      0.653630000000     0.051850000000     0.388880000000     0.0442803  
H107     H      0.841070000000     0.928540000000     0.385440000000     0.0436317  
H108     H      0.839910000000     0.051850000000     0.388790000000     0.0442527  
H109     H      0.653600000000     0.055200000000     0.358470000000     0.0437677  
H110     H      0.652410000000     0.928560000000     0.385500000000     0.0436396  
H111     H      0.339860000000     0.937950000000     0.358470000000     0.0437354  
H112     H      0.341060000000     0.061280000000     0.355100000000     0.0438185  
H113     H      0.246750000000     0.086150000000     0.369670000000     0.0443794  
H114     H      0.246730000000     0.917350000000     0.374260000000     0.0440738  
H115     H      0.153630000000     0.937980000000     0.358410000000     0.0437482  
H116     H      0.152400000000     0.064590000000     0.385490000000     0.0437019  
H117     H      0.339860000000     0.941290000000     0.388880000000     0.0442294  
H118     H      0.341060000000     0.064590000000     0.385510000000     0.0436788  
H119     H      0.152450000000     0.061310000000     0.355070000000     0.0438174  
H120     H      0.153570000000     0.941280000000     0.388830000000     0.0442123  
H121     H      0.506970000000     0.429170000000     0.700640000000     0.0457901  
H122     H      0.435740000000     0.530040000000     0.699680000000     0.041213   
H123     H      0.437830000000     0.557630000000     0.747030000000     0.0445869  
H124     H      0.555200000000     0.435990000000     0.746960000000     0.0445948  
H125     H      0.527590000000     0.434920000000     0.794310000000     0.0412301  
H126     H      0.465570000000     0.558630000000     0.794360000000     0.0412172  
H127     H      0.557150000000     0.463640000000     0.699630000000     0.0411815  
H128     H      0.485930000000     0.564500000000     0.700670000000     0.0458271  
H129     H      0.429340000000     0.509700000000     0.793350000000     0.0458326  
H130     H      0.563820000000     0.483850000000     0.793310000000     0.0458226  
H131     H      0.557380000000     0.029880000000     0.699740000000     0.0412327  
H132     H      0.486160000000     0.929000000000     0.700730000000     0.0457757  
H133     H      0.437990000000     0.935840000000     0.747070000000     0.0445058  
H134     H      0.555350000000     0.057500000000     0.747080000000     0.0446126  
H135     H      0.563910000000     0.009590000000     0.793410000000     0.0458279  
H136     H      0.429430000000     0.983740000000     0.793410000000     0.0457627  
H137     H      0.507190000000     0.064340000000     0.700740000000     0.0458212  
H138     H      0.435980000000     0.963470000000     0.699730000000     0.0411516  
H139     H      0.465660000000     0.934810000000     0.794410000000     0.0411856  
H140     H      0.527680000000     0.058520000000     0.794420000000     0.0412039  
H141     H      0.441500000000     0.839820000000     0.888950000000     0.0442545  
H142     H      0.564760000000     0.841010000000     0.885490000000     0.0435908  
H143     H      0.586270000000     0.746680000000     0.869600000000     0.044205   
H144     H      0.417510000000     0.746690000000     0.874340000000     0.0442147  
H145     H      0.441480000000     0.653530000000     0.888890000000     0.0442834  
H146     H      0.561350000000     0.652390000000     0.855020000000     0.0436825  
H147     H      0.438070000000     0.839810000000     0.858530000000     0.0437911  
H148     H      0.561370000000     0.841010000000     0.855070000000     0.0436656  
H149     H      0.564750000000     0.652320000000     0.885430000000     0.0435971  
H150     H      0.438050000000     0.653600000000     0.858480000000     0.0438155  
H151     H      0.428550000000     0.341040000000     0.885390000000     0.0435797  
H152     H      0.551840000000     0.339850000000     0.888820000000     0.044256   
H153     H      0.575800000000     0.246700000000     0.874270000000     0.0442211  
H154     H      0.407030000000     0.246680000000     0.869570000000     0.0442187  
H155     H      0.428560000000     0.152360000000     0.885450000000     0.0436238  
H156     H      0.555240000000     0.153560000000     0.858470000000     0.0437944  
H157     H      0.431920000000     0.340990000000     0.854970000000     0.0436509  
H158     H      0.555220000000     0.339790000000     0.858400000000     0.0437831  
H159     H      0.551840000000     0.153580000000     0.888890000000     0.0442877  
H160     H      0.431930000000     0.152340000000     0.855040000000     0.0436929  
H161     H      0.064090000000     0.484350000000     0.793420000000     0.045806   
H162     H      0.965850000000     0.559130000000     0.794460000000     0.0411707  
H163     H      0.937970000000     0.557950000000     0.747160000000     0.0445156  
H164     H      0.055340000000     0.436290000000     0.747130000000     0.0446089  
H165     H      0.057150000000     0.463750000000     0.699760000000     0.0412172  
H166     H      0.935750000000     0.530170000000     0.699840000000     0.0411532  
H167     H      0.027870000000     0.435410000000     0.794500000000     0.0412385  
H168     H      0.929610000000     0.510210000000     0.793540000000     0.0458179  
H169     H      0.985930000000     0.564640000000     0.700770000000     0.0457667  
H170     H      0.006960000000     0.429310000000     0.700840000000     0.0458294  
H171     H      0.057580000000     0.030010000000     0.699620000000     0.0412635  
H172     H      0.986370000000     0.929160000000     0.700710000000     0.0457294  
H173     H      0.938220000000     0.936150000000     0.747050000000     0.0444709  
H174     H      0.055590000000     0.057790000000     0.746940000000     0.0447062  
H175     H      0.064160000000     0.010060000000     0.793320000000     0.0458967  
H176     H      0.929680000000     0.984220000000     0.793350000000     0.0457296  
H177     H      0.007410000000     0.064490000000     0.700610000000     0.0458669  
H178     H      0.936180000000     0.963610000000     0.699690000000     0.04112    
H179     H      0.965910000000     0.935280000000     0.794400000000     0.0411392  
H180     H      0.027940000000     0.058990000000     0.794280000000     0.0412783  
H181     H      0.061800000000     0.841570000000     0.855040000000     0.0436604  
H182     H      0.938500000000     0.840350000000     0.858470000000     0.0437918  
H183     H      0.917940000000     0.747280000000     0.874360000000     0.0441965  
H184     H      0.086700000000     0.747270000000     0.869660000000     0.0442322  
H185     H      0.061800000000     0.652920000000     0.855140000000     0.043678   
H186     H      0.941900000000     0.654180000000     0.888990000000     0.0442841  
H187     H      0.065170000000     0.841660000000     0.885460000000     0.0435782  
H188     H      0.941890000000     0.840440000000     0.888890000000     0.04427    
H189     H      0.938490000000     0.654150000000     0.858580000000     0.043816   
H190     H      0.065170000000     0.652950000000     0.885550000000     0.0435973  
H191     H      0.928860000000     0.341590000000     0.885560000000     0.043562   
H192     H      0.052140000000     0.340370000000     0.888910000000     0.0442966  
H193     H      0.076060000000     0.247280000000     0.874250000000     0.0442796  
H194     H      0.907280000000     0.247280000000     0.869660000000     0.0441506  
H195     H      0.928860000000     0.152890000000     0.885440000000     0.0435809  
H196     H      0.055450000000     0.154200000000     0.858370000000     0.0438438  
H197     H      0.932140000000     0.341640000000     0.855140000000     0.0436377  
H198     H      0.055460000000     0.340420000000     0.858490000000     0.043823   
H199     H      0.052160000000     0.154110000000     0.888790000000     0.0443376  
H200     H      0.932160000000     0.152980000000     0.855020000000     0.0436422  
H201     H      0.435280000000     0.528870000000     0.294310000000     0.0412437  
H202     H      0.508550000000     0.429480000000     0.293340000000     0.0457938  
H203     H      0.556450000000     0.437150000000     0.247000000000     0.0444787  
H204     H      0.436910000000     0.556670000000     0.246980000000     0.0445189  
H205     H      0.429260000000     0.508780000000     0.200630000000     0.0457883  
H206     H      0.564140000000     0.485020000000     0.200650000000     0.045766   
H207     H      0.484740000000     0.564360000000     0.293330000000     0.0457817  
H208     H      0.558010000000     0.464970000000     0.294330000000     0.0412423  
H209     H      0.528670000000     0.435530000000     0.199660000000     0.0412363  
H210     H      0.464740000000     0.558260000000     0.199640000000     0.0412478  
H211     H      0.558780000000     0.466920000000     0.950100000000     0.0438201  
H212     H      0.435310000000     0.465460000000     0.950110000000     0.0439979  
H213     H      0.412190000000     0.495670000000     0.996990000000     0.0442537  
H214     H      0.581200000000     0.497680000000     0.996980000000     0.0442577  
H215     H      0.558800000000     0.467010000000     0.043880000000     0.0438277  
H216     H      0.434600000000     0.526440000000     0.043870000000     0.0438452  
H217     H      0.558060000000     0.527810000000     0.950090000000     0.0439838  
H218     H      0.434580000000     0.526350000000     0.950100000000     0.0438613  
H219     H      0.435320000000     0.465550000000     0.043890000000     0.0440064  
H220     H      0.558080000000     0.527900000000     0.043860000000     0.0439744  
H221     H      0.564150000000     0.008610000000     0.200720000000     0.04581    
H222     H      0.464740000000     0.935370000000     0.199720000000     0.0412233  
H223     H      0.436950000000     0.936910000000     0.247060000000     0.0444417  
H224     H      0.556500000000     0.056420000000     0.247080000000     0.0445713  
H225     H      0.558120000000     0.028550000000     0.294410000000     0.0412759  
H226     H      0.435380000000     0.964660000000     0.294400000000     0.0412031  
H227     H      0.528680000000     0.058090000000     0.199750000000     0.0412557  
H228     H      0.429270000000     0.984850000000     0.200730000000     0.045734   
H229     H      0.484840000000     0.929170000000     0.293400000000     0.0457543  
H230     H      0.508660000000     0.064050000000     0.293430000000     0.045806   
H231     H      0.558780000000     0.026580000000     0.043940000000     0.0440069  
H232     H      0.435310000000     0.028040000000     0.043950000000     0.0441818  
H233     H      0.412160000000     0.997810000000     0.997070000000     0.0442186  
H234     H      0.581180000000     0.995810000000     0.997060000000     0.0442445  
H235     H      0.558770000000     0.026460000000     0.950170000000     0.044041   
H236     H      0.434570000000     0.967030000000     0.950190000000     0.0438643  
H237     H      0.558070000000     0.965690000000     0.043960000000     0.0440234  
H238     H      0.434580000000     0.967150000000     0.043960000000     0.043876   
H239     H      0.435290000000     0.027930000000     0.950170000000     0.0441753  
H240     H      0.558040000000     0.965570000000     0.950190000000     0.0440256  
H241     H      0.441430000000     0.653680000000     0.105120000000     0.0442084  
H242     H      0.564700000000     0.652500000000     0.108520000000     0.043666   
H243     H      0.586240000000     0.746820000000     0.124390000000     0.0443246  
H244     H      0.417470000000     0.746820000000     0.119740000000     0.0441197  
H245     H      0.441410000000     0.839990000000     0.105190000000     0.0442157  
H246     H      0.561360000000     0.841100000000     0.139000000000     0.0437557  
H247     H      0.438060000000     0.653680000000     0.135540000000     0.043728   
H248     H      0.561380000000     0.652500000000     0.138930000000     0.0437902  
H249     H      0.564700000000     0.841170000000     0.108580000000     0.043638   
H250     H      0.438060000000     0.839920000000     0.135610000000     0.0437245  
H251     H      0.551990000000     0.339940000000     0.105210000000     0.0442379  
H252     H      0.428710000000     0.341130000000     0.108590000000     0.0436533  
H253     H      0.407160000000     0.246820000000     0.124460000000     0.0443425  
H254     H      0.575940000000     0.246810000000     0.119830000000     0.0441042  
H255     H      0.551990000000     0.153660000000     0.105260000000     0.044245   
H256     H      0.432030000000     0.152530000000     0.139060000000     0.0438053  
H257     H      0.555340000000     0.339960000000     0.135620000000     0.0437391  
H258     H      0.432030000000     0.341150000000     0.139010000000     0.0437755  
H259     H      0.428700000000     0.152480000000     0.108650000000     0.0436804  
H260     H      0.555330000000     0.153710000000     0.135680000000     0.0437456  
H261     H      0.008610000000     0.564350000000     0.293470000000     0.0457855  
H262     H      0.935390000000     0.464920000000     0.294430000000     0.0412082  
H263     H      0.937140000000     0.437060000000     0.247110000000     0.0444401  
H264     H      0.056630000000     0.556640000000     0.247170000000     0.0445187  
H265     H      0.028970000000     0.558180000000     0.199810000000     0.0412716  
H266     H      0.965090000000     0.435430000000     0.199790000000     0.041207   
H267     H      0.058090000000     0.528880000000     0.294510000000     0.0412332  
H268     H      0.984870000000     0.429440000000     0.293490000000     0.0457362  
H269     H      0.929580000000     0.484890000000     0.200750000000     0.0457694  
H270     H      0.064450000000     0.508710000000     0.200830000000     0.0457832  
H271     H      0.935260000000     0.527500000000     0.950270000000     0.0438039  
H272     H      0.058730000000     0.527830000000     0.950260000000     0.0440347  
H273     H      0.081620000000     0.497110000000     0.997130000000     0.0442808  
H274     H      0.912590000000     0.497100000000     0.997140000000     0.044209   
H275     H      0.935460000000     0.527590000000     0.044030000000     0.0440008  
H276     H      0.058780000000     0.466390000000     0.043990000000     0.0440143  
H277     H      0.935420000000     0.466610000000     0.950250000000     0.044006   
H278     H      0.058910000000     0.466930000000     0.950220000000     0.0438425  
H279     H      0.058950000000     0.527290000000     0.044040000000     0.0437924  
H280     H      0.935300000000     0.466700000000     0.044010000000     0.0437781  
H281     H      0.935460000000     0.028600000000     0.294310000000     0.0412552  
H282     H      0.008660000000     0.929170000000     0.293310000000     0.0457842  
H283     H      0.056650000000     0.936920000000     0.246990000000     0.0444804  
H284     H      0.937180000000     0.056510000000     0.246990000000     0.0445104  
H285     H      0.929590000000     0.008740000000     0.200620000000     0.0458116  
H286     H      0.064450000000     0.984910000000     0.200680000000     0.0457296  
H287     H      0.984940000000     0.064070000000     0.293360000000     0.0457625  
H288     H      0.058150000000     0.964620000000     0.294350000000     0.0412106  
H289     H      0.028960000000     0.935440000000     0.199640000000     0.0412347  
H290     H      0.965090000000     0.058200000000     0.199670000000     0.0412235  
H291     H      0.935450000000     0.966380000000     0.043840000000     0.0440211  
H292     H      0.058930000000     0.966690000000     0.043860000000     0.0438511  
H293     H      0.081610000000     0.997140000000     0.996980000000     0.0442621  
H294     H      0.912580000000     0.997160000000     0.997000000000     0.0441839  
H295     H      0.935230000000     0.967020000000     0.950080000000     0.0438326  
H296     H      0.058890000000     0.027590000000     0.950110000000     0.0440165  
H297     H      0.935280000000     0.027280000000     0.043910000000     0.0439794  
H298     H      0.058770000000     0.027590000000     0.043890000000     0.0442335  
H299     H      0.058740000000     0.966690000000     0.950080000000     0.0440606  
H300     H      0.935420000000     0.027910000000     0.950140000000     0.0441743  
H301     H      0.052310000000     0.839980000000     0.105190000000     0.0442428  
H302     H      0.929040000000     0.841190000000     0.108520000000     0.0436076  
H303     H      0.907460000000     0.746890000000     0.124420000000     0.0442887  
H304     H      0.076240000000     0.746880000000     0.119880000000     0.0441647  
H305     H      0.052350000000     0.653700000000     0.105350000000     0.0442411  
H306     H      0.932310000000     0.652610000000     0.139080000000     0.0437383  
H307     H      0.055620000000     0.840040000000     0.135610000000     0.0437547  
H308     H      0.932290000000     0.841250000000     0.138940000000     0.0437204  
H309     H      0.929040000000     0.652500000000     0.108670000000     0.0436352  
H310     H      0.055610000000     0.653810000000     0.135770000000     0.0437394  
H311     H      0.938550000000     0.339980000000     0.135700000000     0.0437028  
H312     H      0.061860000000     0.341180000000     0.139050000000     0.0437819  
H313     H      0.086720000000     0.246880000000     0.124430000000     0.0443795  
H314     H      0.917940000000     0.246890000000     0.119840000000     0.0440684  
H315     H      0.938550000000     0.153760000000     0.135630000000     0.0437161  
H316     H      0.065150000000     0.152560000000     0.108560000000     0.0436857  
H317     H      0.941870000000     0.340050000000     0.105280000000     0.044211   
H318     H      0.065150000000     0.341250000000     0.108630000000     0.0436621  
H319     H      0.061860000000     0.152550000000     0.138980000000     0.0437975  
H320     H      0.941870000000     0.153770000000     0.105210000000     0.0442137  
N1       N      0.631710000000     0.497570000000     0.622150000000    -0.166645   
N2       N      0.861040000000     0.496150000000     0.622300000000    -0.166633   
N3       N      0.131710000000     0.497660000000     0.622290000000    -0.166628   
N4       N      0.361040000000     0.496200000000     0.622180000000    -0.166644   
N5       N      0.861410000000     0.997430000000     0.622210000000    -0.166698   
N6       N      0.632070000000     0.995970000000     0.622260000000    -0.166745   
N7       N      0.132080000000     0.995920000000     0.622120000000    -0.166693   
N8       N      0.361410000000     0.997330000000     0.622200000000    -0.166707   
N9       N      0.496550000000     0.496930000000     0.439610000000    -0.166553   
N10      N      0.496360000000     0.496910000000     0.554370000000    -0.166539   
N11      N      0.496790000000     0.996610000000     0.554450000000    -0.166606   
N12      N      0.496740000000     0.996570000000     0.439690000000    -0.166613   
N13      N      0.996510000000     0.496900000000     0.439760000000    -0.166505   
N14      N      0.996370000000     0.496900000000     0.554520000000    -0.166539   
N15      N      0.861310000000     0.501410000000     0.372020000000    -0.166577   
N16      N      0.631900000000     0.501390000000     0.371940000000    -0.166503   
N17      N      0.361310000000     0.492460000000     0.371910000000    -0.166519   
N18      N      0.131900000000     0.492400000000     0.372090000000    -0.166522   
N19      N      0.996650000000     0.996590000000     0.554370000000    -0.166505   
N20      N      0.996690000000     0.996550000000     0.439620000000    -0.166463   
N21      N      0.632030000000     0.992100000000     0.371990000000    -0.166554   
N22      N      0.861440000000     0.992060000000     0.371900000000    -0.166575   
N23      N      0.132030000000     0.001070000000     0.371940000000    -0.166307   
N24      N      0.361440000000     0.001050000000     0.371990000000    -0.166294   
N25      N      0.496590000000     0.496760000000     0.804280000000    -0.166531   
N26      N      0.496430000000     0.496840000000     0.689710000000    -0.166563   
N27      N      0.496670000000     0.996660000000     0.804360000000    -0.166703   
N28      N      0.496680000000     0.996670000000     0.689790000000    -0.166597   
N29      N      0.501180000000     0.631980000000     0.871940000000    -0.166551   
N30      N      0.501200000000     0.861390000000     0.872010000000    -0.16655    
N31      N      0.492120000000     0.131980000000     0.871970000000    -0.166546   
N32      N      0.492110000000     0.361390000000     0.871890000000    -0.166598   
N33      N      0.996410000000     0.496950000000     0.689860000000    -0.16659    
N34      N      0.996890000000     0.497300000000     0.804430000000    -0.166691   
N35      N      0.996920000000     0.997170000000     0.804280000000    -0.166617   
N36      N      0.996870000000     0.996790000000     0.689710000000    -0.166768   
N37      N      0.001610000000     0.632570000000     0.872070000000    -0.16653    
N38      N      0.001610000000     0.861980000000     0.871950000000    -0.166513   
N39      N      0.992390000000     0.132570000000     0.871900000000    -0.166593   
N40      N      0.992380000000     0.361980000000     0.872030000000    -0.166611   
N41      N      0.496700000000     0.496890000000     0.189700000000    -0.166561   
N42      N      0.496640000000     0.496920000000     0.304280000000    -0.166542   
N43      N      0.496710000000     0.496740000000     0.054360000000    -0.166404   
N44      N      0.496680000000     0.496640000000     0.939610000000    -0.166538   
N45      N      0.496750000000     0.996600000000     0.304360000000    -0.166646   
N46      N      0.496710000000     0.996750000000     0.189780000000    -0.16661    
N47      N      0.496670000000     0.996730000000     0.939690000000    -0.166425   
N48      N      0.496680000000     0.996870000000     0.054440000000    -0.166401   
N49      N      0.501160000000     0.861520000000     0.122110000000    -0.166574   
N50      N      0.501170000000     0.632110000000     0.122030000000    -0.166571   
N51      N      0.492240000000     0.132110000000     0.122170000000    -0.166554   
N52      N      0.492240000000     0.361520000000     0.122100000000    -0.166556   
N53      N      0.997040000000     0.496810000000     0.189850000000    -0.166577   
N54      N      0.996710000000     0.496910000000     0.304420000000    -0.166601   
N55      N      0.997120000000     0.496970000000     0.054510000000    -0.16651    
N56      N      0.997070000000     0.497230000000     0.939760000000    -0.16649    
N57      N      0.997040000000     0.996840000000     0.189700000000    -0.166667   
N58      N      0.996780000000     0.996600000000     0.304280000000    -0.16667    
N59      N      0.997070000000     0.997310000000     0.939610000000    -0.166561   
N60      N      0.997110000000     0.996960000000     0.054370000000    -0.166565   
N61      N      0.992560000000     0.632180000000     0.122230000000    -0.16663    
N62      N      0.992540000000     0.861590000000     0.122060000000    -0.166617   
N63      N      0.001630000000     0.132180000000     0.122090000000    -0.166524   
N64      N      0.001630000000     0.361590000000     0.122170000000    -0.166535   
O1       O      0.034750000000     0.997260000000     0.087910000000    -0.397309   
O2       O      0.034390000000     0.991940000000     0.156240000000    -0.397205   
O3       O      0.032020000000     0.927290000000     0.121050000000    -0.398888   
O4       O      0.037290000000     0.063800000000     0.123100000000    -0.395857   
O5       O      0.962150000000     0.066480000000     0.121070000000    -0.399091   
O6       O      0.956880000000     0.929970000000     0.123070000000    -0.395885   
O7       O      0.959740000000     0.001790000000     0.156230000000    -0.397082   
O8       O      0.959450000000     0.996560000000     0.087910000000    -0.397533   
O9       O      0.034760000000     0.496570000000     0.088060000000    -0.397392   
O10      O      0.034400000000     0.501770000000     0.156390000000    -0.397125   
O11      O      0.037290000000     0.429970000000     0.123220000000    -0.395993   
O12      O      0.032030000000     0.566480000000     0.121230000000    -0.398983   
O13      O      0.956890000000     0.563810000000     0.123240000000    -0.395955   
O14      O      0.962150000000     0.427290000000     0.121180000000    -0.399142   
O15      O      0.959740000000     0.491930000000     0.156370000000    -0.397341   
O16      O      0.959460000000     0.497280000000     0.088050000000    -0.397396   
O17      O      0.534020000000     0.001710000000     0.156310000000    -0.397052   
O18      O      0.534340000000     0.996410000000     0.087990000000    -0.397483   
O19      O      0.531680000000     0.066390000000     0.121140000000    -0.398946   
O20      O      0.536850000000     0.929870000000     0.123160000000    -0.395905   
O21      O      0.461710000000     0.927250000000     0.121110000000    -0.398993   
O22      O      0.456540000000     0.063760000000     0.123200000000    -0.395878   
O23      O      0.459040000000     0.997280000000     0.087990000000    -0.397386   
O24      O      0.459370000000     0.991860000000     0.156310000000    -0.397321   
O25      O      0.534360000000     0.497210000000     0.087910000000    -0.397325   
O26      O      0.534030000000     0.491930000000     0.156230000000    -0.397392   
O27      O      0.531690000000     0.427250000000     0.121060000000    -0.399001   
O28      O      0.536860000000     0.563760000000     0.123080000000    -0.396024   
O29      O      0.461720000000     0.566390000000     0.121020000000    -0.399065   
O30      O      0.456550000000     0.429880000000     0.123120000000    -0.395916   
O31      O      0.459380000000     0.501790000000     0.156230000000    -0.397433   
O32      O      0.459050000000     0.496340000000     0.087910000000    -0.397238   
O33      O      0.034690000000     0.996950000000     0.906060000000    -0.3973     
O34      O      0.034280000000     0.002240000000     0.837730000000    -0.396874   
O35      O      0.031900000000     0.066890000000     0.872910000000    -0.39869    
O36      O      0.037240000000     0.930380000000     0.870880000000    -0.395893   
O37      O      0.962100000000     0.927660000000     0.872960000000    -0.399079   
O38      O      0.956760000000     0.064170000000     0.870870000000    -0.395824   
O39      O      0.959640000000     0.992240000000     0.837760000000    -0.397291   
O40      O      0.959390000000     0.997670000000     0.906080000000    -0.397408   
O41      O      0.034690000000     0.497620000000     0.906200000000    -0.39731    
O42      O      0.034260000000     0.492290000000     0.837880000000    -0.397271   
O43      O      0.037230000000     0.564170000000     0.871020000000    -0.396034   
O44      O      0.031890000000     0.427660000000     0.873060000000    -0.398835   
O45      O      0.956750000000     0.430380000000     0.871030000000    -0.395887   
O46      O      0.962100000000     0.566890000000     0.873100000000    -0.39917    
O47      O      0.959630000000     0.502290000000     0.837900000000    -0.397304   
O48      O      0.959390000000     0.496900000000     0.906230000000    -0.39741    
O49      O      0.459010000000     0.997150000000     0.906150000000    -0.39748    
O50      O      0.459350000000     0.991660000000     0.837820000000    -0.397226   
O51      O      0.461720000000     0.927100000000     0.873040000000    -0.398837   
O52      O      0.456460000000     0.063610000000     0.870930000000    -0.395785   
O53      O      0.531600000000     0.066280000000     0.873020000000    -0.398874   
O54      O      0.536860000000     0.929770000000     0.870950000000    -0.395889   
O55      O      0.533980000000     0.001680000000     0.837820000000    -0.396928   
O56      O      0.534310000000     0.996270000000     0.906150000000    -0.397471   
O57      O      0.534310000000     0.497100000000     0.906060000000    -0.397363   
O58      O      0.533930000000     0.491710000000     0.837740000000    -0.397416   
O59      O      0.536840000000     0.563610000000     0.870870000000    -0.395937   
O60      O      0.531580000000     0.427100000000     0.872930000000    -0.398996   
O61      O      0.456450000000     0.429770000000     0.870850000000    -0.395963   
O62      O      0.461700000000     0.566280000000     0.872970000000    -0.399021   
O63      O      0.459300000000     0.501720000000     0.837750000000    -0.397309   
O64      O      0.459010000000     0.496220000000     0.906070000000    -0.397394   
O65      O      0.001650000000     0.959240000000     0.337740000000    -0.397096   
O66      O      0.996400000000     0.958890000000     0.406070000000    -0.397318   
O67      O      0.929810000000     0.956380000000     0.370890000000    -0.395769   
O68      O      0.066320000000     0.961600000000     0.372920000000    -0.398827   
O69      O      0.063660000000     0.036750000000     0.370920000000    -0.39556    
O70      O      0.927150000000     0.031530000000     0.372900000000    -0.398846   
O71      O      0.997030000000     0.034210000000     0.406080000000    -0.397295   
O72      O      0.991870000000     0.033910000000     0.337750000000    -0.397177   
O73      O      0.991750000000     0.459570000000     0.337890000000    -0.397208   
O74      O      0.996870000000     0.459240000000     0.406220000000    -0.397381   
O75      O      0.927010000000     0.461940000000     0.373030000000    -0.398857   
O76      O      0.063530000000     0.456720000000     0.371070000000    -0.395814   
O77      O      0.066190000000     0.531870000000     0.373080000000    -0.398832   
O78      O      0.929680000000     0.537090000000     0.371030000000    -0.395838   
O79      O      0.996240000000     0.534560000000     0.406220000000    -0.397346   
O80      O      0.001540000000     0.534240000000     0.337890000000    -0.397102   
O81      O      0.491800000000     0.959260000000     0.337820000000    -0.397344   
O82      O      0.497220000000     0.958920000000     0.406150000000    -0.397342   
O83      O      0.427170000000     0.961590000000     0.373020000000    -0.398787   
O84      O      0.563680000000     0.956410000000     0.370950000000    -0.395819   
O85      O      0.566310000000     0.031560000000     0.373030000000    -0.398674   
O86      O      0.429790000000     0.036740000000     0.370950000000    -0.395671   
O87      O      0.496260000000     0.034230000000     0.406150000000    -0.397183   
O88      O      0.501680000000     0.033910000000     0.337830000000    -0.397356   
O89      O      0.501560000000     0.459590000000     0.337750000000    -0.397384   
O90      O      0.496110000000     0.459270000000     0.406070000000    -0.397343   
O91      O      0.429660000000     0.456760000000     0.370860000000    -0.395944   
O92      O      0.566170000000     0.461940000000     0.372960000000    -0.398854   
O93      O      0.563550000000     0.537090000000     0.370880000000    -0.395793   
O94      O      0.427030000000     0.531910000000     0.372940000000    -0.398844   
O95      O      0.497060000000     0.534580000000     0.406070000000    -0.397399   
O96      O      0.491680000000     0.534250000000     0.337750000000    -0.39738    
O97      O      0.993140000000     0.959260000000     0.656270000000    -0.397263   
O98      O      0.997710000000     0.958990000000     0.587920000000    -0.397498   
O99      O      0.064660000000     0.958590000000     0.622890000000    -0.396322   
O100     O      0.928060000000     0.959530000000     0.621310000000    -0.398778   
O101     O      0.928830000000     0.034770000000     0.622910000000    -0.396379   
O102     O      0.065420000000     0.033830000000     0.621240000000    -0.3986     
O103     O      0.995680000000     0.034280000000     0.587900000000    -0.397457   
O104     O      0.000460000000     0.034210000000     0.656230000000    -0.39706    
O105     O      0.000050000000     0.459450000000     0.656400000000    -0.397238   
O106     O      0.995350000000     0.459260000000     0.588060000000    -0.397483   
O107     O      0.065050000000     0.459760000000     0.621420000000    -0.398784   
O108     O      0.928470000000     0.458830000000     0.623050000000    -0.39656    
O109     O      0.927700000000     0.534070000000     0.621420000000    -0.398688   
O110     O      0.064290000000     0.535000000000     0.623040000000    -0.396468   
O111     O      0.997380000000     0.534550000000     0.588050000000    -0.397484   
O112     O      0.992730000000     0.534410000000     0.656390000000    -0.397358   
O113     O      0.500380000000     0.034140000000     0.656320000000    -0.397222   
O114     O      0.495680000000     0.034270000000     0.587990000000    -0.397306   
O115     O      0.428810000000     0.034690000000     0.622980000000    -0.396433   
O116     O      0.565400000000     0.033840000000     0.621340000000    -0.398588   
O117     O      0.564680000000     0.958600000000     0.623010000000    -0.396473   
O118     O      0.428090000000     0.959450000000     0.621320000000    -0.398742   
O119     O      0.497870000000     0.958980000000     0.587990000000    -0.397322   
O120     O      0.493050000000     0.959180000000     0.656330000000    -0.397381   
O121     O      0.492730000000     0.534340000000     0.656250000000    -0.397453   
O122     O      0.497460000000     0.534550000000     0.587910000000    -0.397325   
O123     O      0.427720000000     0.534080000000     0.621270000000    -0.398736   
O124     O      0.564310000000     0.534930000000     0.622910000000    -0.396566   
O125     O      0.565030000000     0.459690000000     0.621240000000    -0.398797   
O126     O      0.428440000000     0.458840000000     0.622920000000    -0.396531   
O127     O      0.495260000000     0.459260000000     0.587910000000    -0.397523   
O128     O      0.500070000000     0.459390000000     0.656240000000    -0.397469   


