data_structure

_audit_creation_method RASPA-1.0
_audit_creation_date 2023-5-23
_audit_author_name 'Poobodin Mano'

_cell_length_a    29.6669
_cell_length_b    29.6653
_cell_length_c    29.6284
_cell_angle_alpha 89.9999
_cell_angle_beta  89.9998
_cell_angle_gamma 90
_cell_volume      26075.3

_symmetry_cell_setting          triclinic
_symmetry_space_group_name_Hall 'P 1'
_symmetry_space_group_name_H-M  'P 1'
_symmetry_Int_Tables_number     1

_symmetry_equiv_pos_as_xyz 'x,y,z'

loop_
_atom_site_label
_atom_site_type_symbol
_atom_site_fract_x
_atom_site_fract_y
_atom_site_fract_z
_atom_site_charge
C1       C      0.996820000000     0.086350000000     0.497050000000     0.402429   
C2       C      0.996760000000     0.907340000000     0.497050000000     0.402213   
C3       C      0.996790000000     0.996840000000     0.586580000000     0.402613   
C4       C      0.996790000000     0.996840000000     0.407510000000     0.402689   
C5       C      0.996880000000     0.407340000000     0.497320000000     0.402532   
C6       C      0.996760000000     0.586350000000     0.497380000000     0.402548   
C7       C      0.996820000000     0.496890000000     0.407820000000     0.4031     
C8       C      0.996830000000     0.496820000000     0.586890000000     0.402919   
C9       C      0.499900000000     0.086340000000     0.497200000000     0.402566   
C10      C      0.494410000000     0.907370000000     0.496980000000     0.402768   
C11      C      0.497140000000     0.996740000000     0.586570000000     0.403086   
C12      C      0.497150000000     0.996960000000     0.407480000000     0.402998   
C13      C      0.501140000000     0.407330000000     0.498450000000     0.402977   
C14      C      0.493220000000     0.586380000000     0.498230000000     0.402941   
C15      C      0.497260000000     0.496750000000     0.408690000000     0.404481   
C16      C      0.497100000000     0.496960000000     0.587930000000     0.404443   
C17      C      0.907220000000     0.996690000000     0.997030000000     0.402297   
C18      C      0.086270000000     0.996760000000     0.997060000000     0.402105   
C19      C      0.996770000000     0.996730000000     0.907480000000     0.402834   
C20      C      0.996730000000     0.996720000000     0.086610000000     0.402724   
C21      C      0.907550000000     0.494310000000     0.997360000000     0.402399   
C22      C      0.086520000000     0.499810000000     0.997500000000     0.402382   
C23      C      0.997090000000     0.497070000000     0.907820000000     0.402946   
C24      C      0.996960000000     0.497050000000     0.086920000000     0.402967   
C25      C      0.407230000000     0.996780000000     0.996990000000     0.402268   
C26      C      0.586270000000     0.996670000000     0.997020000000     0.402279   
C27      C      0.496780000000     0.996720000000     0.907450000000     0.403121   
C28      C      0.496740000000     0.996730000000     0.086570000000     0.40298    
C29      C      0.407510000000     0.501010000000     0.998430000000     0.403044   
C30      C      0.586560000000     0.493100000000     0.998260000000     0.402944   
C31      C      0.496950000000     0.497120000000     0.908690000000     0.404527   
C32      C      0.497120000000     0.496980000000     0.087930000000     0.404324   
C33      C      0.833580000000     0.533670000000     0.000280000000    -0.0215561  
C34      C      0.659770000000     0.450670000000     0.996490000000    -0.0229955  
C35      C      0.660200000000     0.532520000000     0.000190000000    -0.0214295  
C36      C      0.706750000000     0.514870000000     0.999410000000     0.0129865  
C37      C      0.706810000000     0.468210000000     0.997050000000     0.0136329  
C38      C      0.747350000000     0.443820000000     0.995370000000    -0.065949   
C39      C      0.834690000000     0.451910000000     0.994920000000    -0.0229593  
C40      C      0.746780000000     0.539760000000     0.000690000000    -0.0654741  
C41      C      0.787560000000     0.468820000000     0.996450000000     0.0135395  
C42      C      0.787140000000     0.515460000000     0.999260000000     0.0131106  
C43      C      0.160480000000     0.460450000000     0.000500000000    -0.0215293  
C44      C      0.334290000000     0.543450000000     0.996790000000    -0.0230756  
C45      C      0.333860000000     0.461600000000     0.000440000000    -0.0213663  
C46      C      0.287320000000     0.479250000000     0.999690000000     0.0129232  
C47      C      0.287260000000     0.525910000000     0.997360000000     0.0136979  
C48      C      0.246720000000     0.550300000000     0.995690000000    -0.0659788  
C49      C      0.159380000000     0.542210000000     0.995180000000    -0.0229532  
C50      C      0.247280000000     0.454370000000     0.000950000000    -0.0653614  
C51      C      0.206510000000     0.525300000000     0.996740000000     0.0135733  
C52      C      0.206920000000     0.478670000000     0.999530000000     0.0130758  
C53      C      0.833820000000     0.955710000000     0.997860000000    -0.0227364  
C54      C      0.659690000000     0.037620000000     0.997880000000    -0.0228568  
C55      C      0.659680000000     0.955690000000     0.996150000000    -0.022767   
C56      C      0.706470000000     0.973290000000     0.996770000000     0.0132405  
C57      C      0.706470000000     0.020020000000     0.997260000000     0.0141137  
C58      C      0.746750000000     0.044700000000     0.997030000000    -0.0664373  
C59      C      0.833810000000     0.037630000000     0.996160000000    -0.0227739  
C60      C      0.746750000000     0.948610000000     0.997000000000    -0.0659536  
C61      C      0.787030000000     0.020020000000     0.996780000000     0.0140918  
C62      C      0.787030000000     0.973300000000     0.997240000000     0.0132293  
C63      C      0.333820000000     0.037760000000     0.996120000000    -0.0228392  
C64      C      0.159690000000     0.955810000000     0.996200000000    -0.0227669  
C65      C      0.159680000000     0.037740000000     0.997900000000    -0.0228467  
C66      C      0.206460000000     0.020150000000     0.997270000000     0.0140569  
C67      C      0.206470000000     0.973420000000     0.996800000000     0.0133248  
C68      C      0.246750000000     0.948750000000     0.997020000000    -0.065987   
C69      C      0.333810000000     0.955830000000     0.997850000000    -0.022788   
C70      C      0.246740000000     0.044830000000     0.997010000000    -0.066408   
C71      C      0.287030000000     0.973430000000     0.997240000000     0.0133253  
C72      C      0.287030000000     0.020150000000     0.996760000000     0.0140348  
C73      C      0.529910000000     0.521540000000     0.335400000000    -0.0228103  
C74      C      0.472910000000     0.463870000000     0.161210000000    -0.0228332  
C75      C      0.521440000000     0.529940000000     0.161250000000    -0.0228328  
C76      C      0.512390000000     0.514620000000     0.208040000000     0.0143278  
C77      C      0.482060000000     0.479070000000     0.208020000000     0.0143502  
C78      C      0.463560000000     0.462540000000     0.248300000000    -0.0661899  
C79      C      0.464670000000     0.471900000000     0.335380000000    -0.0228748  
C80      C      0.530930000000     0.531060000000     0.248320000000    -0.0661025  
C81      C      0.479770000000     0.481290000000     0.288580000000     0.014376   
C82      C      0.514790000000     0.512220000000     0.288590000000     0.0142885  
C83      C      0.530070000000     0.521310000000     0.661240000000    -0.0228464  
C84      C      0.472100000000     0.464530000000     0.835390000000    -0.0228605  
C85      C      0.521730000000     0.529780000000     0.835390000000    -0.0228122  
C86      C      0.512400000000     0.514660000000     0.788590000000     0.0143132  
C87      C      0.481470000000     0.479630000000     0.788580000000     0.0143321  
C88      C      0.462710000000     0.463420000000     0.748300000000    -0.0661366  
C89      C      0.464010000000     0.472780000000     0.661220000000    -0.0227334  
C90      C      0.531220000000     0.530800000000     0.748310000000    -0.0661491  
C91      C      0.479230000000     0.481920000000     0.708030000000     0.0142978  
C92      C      0.514760000000     0.512250000000     0.708040000000     0.0143508  
C93      C      0.520970000000     0.963660000000     0.159910000000    -0.0227484  
C94      C      0.464890000000     0.022290000000     0.334150000000    -0.0228196  
C95      C      0.529340000000     0.971660000000     0.334110000000    -0.0227064  
C96      C      0.514360000000     0.981250000000     0.287300000000     0.013808   
C97      C      0.479720000000     0.012600000000     0.287320000000     0.0146702  
C98      C      0.463590000000     0.031430000000     0.247040000000    -0.0663237  
C99      C      0.472620000000     0.029850000000     0.159920000000    -0.0228098  
C100     C      0.530330000000     0.962310000000     0.247000000000    -0.0658414  
C101     C      0.481820000000     0.014670000000     0.206740000000     0.0146576  
C102     C      0.511940000000     0.978960000000     0.206730000000     0.0138462  
C103     C      0.464120000000     0.972350000000     0.659860000000    -0.0227676  
C104     C      0.521800000000     0.029230000000     0.834130000000    -0.0228488  
C105     C      0.471910000000     0.964200000000     0.834080000000    -0.0227826  
C106     C      0.481430000000     0.979220000000     0.787280000000     0.0138657  
C107     C      0.512440000000     0.014170000000     0.787310000000     0.0146737  
C108     C      0.531280000000     0.030330000000     0.747050000000    -0.0663677  
C109     C      0.530090000000     0.020990000000     0.659940000000    -0.022849   
C110     C      0.462700000000     0.963040000000     0.746970000000    -0.0659066  
C111     C      0.514810000000     0.011850000000     0.706740000000     0.0146621  
C112     C      0.479290000000     0.981500000000     0.706700000000     0.0138481  
C113     C      0.532630000000     0.660030000000     0.500100000000    -0.0225228  
C114     C      0.452020000000     0.834500000000     0.494540000000    -0.0223755  
C115     C      0.533770000000     0.833410000000     0.499940000000    -0.022626   
C116     C      0.515560000000     0.786960000000     0.498970000000     0.0142782  
C117     C      0.468930000000     0.787370000000     0.496140000000     0.0129699  
C118     C      0.443930000000     0.747160000000     0.495110000000    -0.0654603  
C119     C      0.450780000000     0.659580000000     0.496360000000    -0.0225391  
C120     C      0.539860000000     0.746610000000     0.500480000000    -0.0667778  
C121     C      0.468320000000     0.706620000000     0.496860000000     0.0131006  
C122     C      0.514980000000     0.706570000000     0.499240000000     0.0141465  
C123     C      0.460550000000     0.160300000000     0.500300000000    -0.0226679  
C124     C      0.543570000000     0.334110000000     0.496760000000    -0.0224773  
C125     C      0.461730000000     0.333680000000     0.500460000000    -0.0224835  
C126     C      0.479370000000     0.287130000000     0.499650000000     0.0141269  
C127     C      0.526030000000     0.287080000000     0.497290000000     0.0131015  
C128     C      0.550410000000     0.246540000000     0.495540000000    -0.0654566  
C129     C      0.542310000000     0.159190000000     0.494920000000    -0.0224293  
C130     C      0.454480000000     0.247100000000     0.500870000000    -0.0667363  
C131     C      0.525410000000     0.206320000000     0.496560000000     0.0129816  
C132     C      0.478770000000     0.206740000000     0.499380000000     0.01429    
C133     C      0.972810000000     0.463870000000     0.160240000000    -0.0228203  
C134     C      0.029120000000     0.522170000000     0.334500000000    -0.0228444  
C135     C      0.964530000000     0.471710000000     0.334460000000    -0.0227745  
C136     C      0.979490000000     0.481320000000     0.287650000000     0.0138442  
C137     C      0.014180000000     0.512630000000     0.287680000000     0.014659   
C138     C      0.030230000000     0.531550000000     0.247400000000    -0.0663606  
C139     C      0.020990000000     0.530180000000     0.160290000000    -0.0228206  
C140     C      0.963480000000     0.462440000000     0.247340000000    -0.0658838  
C141     C      0.011920000000     0.514890000000     0.207100000000     0.0146584  
C142     C      0.981830000000     0.479140000000     0.207070000000     0.0138716  
C143     C      0.963990000000     0.521300000000     0.660250000000    -0.0227282  
C144     C      0.022180000000     0.464650000000     0.834470000000    -0.0228103  
C145     C      0.971980000000     0.529450000000     0.834460000000    -0.0228071  
C146     C      0.981480000000     0.514430000000     0.787650000000     0.0138512  
C147     C      0.012580000000     0.479560000000     0.787650000000     0.014632   
C148     C      0.031270000000     0.463310000000     0.747350000000    -0.0663246  
C149     C      0.029750000000     0.472380000000     0.660230000000    -0.0228008  
C150     C      0.962670000000     0.530580000000     0.747360000000    -0.0658617  
C151     C      0.014650000000     0.481680000000     0.707060000000     0.0146375  
C152     C      0.979190000000     0.512110000000     0.707060000000     0.0138068  
C153     C      0.021170000000     0.963840000000     0.159960000000    -0.022689   
C154     C      0.964280000000     0.021780000000     0.334170000000    -0.0227108  
C155     C      0.029290000000     0.971860000000     0.334170000000    -0.0227469  
C156     C      0.014250000000     0.981300000000     0.287350000000     0.0142562  
C157     C      0.979280000000     0.012290000000     0.287350000000     0.0142358  
C158     C      0.963040000000     0.031000000000     0.247060000000    -0.0660966  
C159     C      0.972270000000     0.029610000000     0.159950000000    -0.0226938  
C160     C      0.030460000000     0.962530000000     0.247070000000    -0.066126   
C161     C      0.981510000000     0.014460000000     0.206770000000     0.0142368  
C162     C      0.011960000000     0.979030000000     0.206770000000     0.0142392  
C163     C      0.964280000000     0.971860000000     0.659910000000    -0.0226396  
C164     C      0.021230000000     0.029640000000     0.834150000000    -0.0227936  
C165     C      0.972330000000     0.963860000000     0.834120000000    -0.0226481  
C166     C      0.981560000000     0.979040000000     0.787310000000     0.0134391  
C167     C      0.012010000000     0.014480000000     0.787330000000     0.0150498  
C168     C      0.030490000000     0.031020000000     0.747040000000    -0.0665658  
C169     C      0.029290000000     0.021780000000     0.659930000000    -0.0228782  
C170     C      0.963080000000     0.962540000000     0.747020000000    -0.0656336  
C171     C      0.014270000000     0.012300000000     0.706740000000     0.0150831  
C172     C      0.979300000000     0.981300000000     0.706730000000     0.0134058  
C173     C      0.956010000000     0.833920000000     0.492730000000    -0.022406   
C174     C      0.037480000000     0.659780000000     0.501720000000    -0.0225533  
C175     C      0.956000000000     0.659760000000     0.492970000000    -0.0223986  
C176     C      0.973510000000     0.706560000000     0.494790000000     0.0131508  
C177     C      0.019960000000     0.706570000000     0.499780000000     0.0140781  
C178     C      0.044510000000     0.746850000000     0.502360000000    -0.0663695  
C179     C      0.037490000000     0.833920000000     0.501480000000    -0.0225492  
C180     C      0.948970000000     0.746840000000     0.492100000000    -0.0658413  
C181     C      0.019970000000     0.787130000000     0.499670000000     0.0140699  
C182     C      0.973520000000     0.787130000000     0.494670000000     0.0131527  
C183     C      0.956110000000     0.159780000000     0.501460000000    -0.0224553  
C184     C      0.037630000000     0.333920000000     0.492890000000    -0.0225255  
C185     C      0.956150000000     0.333920000000     0.501640000000    -0.0224344  
C186     C      0.973660000000     0.287130000000     0.499720000000     0.0132508  
C187     C      0.020110000000     0.287130000000     0.494720000000     0.0139948  
C188     C      0.044640000000     0.246840000000     0.492040000000    -0.0663272  
C189     C      0.037590000000     0.159760000000     0.492710000000    -0.0225152  
C190     C      0.949110000000     0.246850000000     0.502300000000    -0.0658841  
C191     C      0.020090000000     0.206560000000     0.494640000000     0.0139935  
C192     C      0.973640000000     0.206560000000     0.499620000000     0.0132589  
Cu1      Cu     0.955210000000     0.996860000000     0.497040000000     0.841681   
Cu2      Cu     0.038380000000     0.996830000000     0.497050000000     0.842101   
Cu3      Cu     0.955230000000     0.496810000000     0.497350000000     0.842224   
Cu4      Cu     0.038410000000     0.496880000000     0.497350000000     0.842615   
Cu5      Cu     0.455560000000     0.997960000000     0.497020000000     0.842184   
Cu6      Cu     0.538740000000     0.995740000000     0.497030000000     0.842208   
Cu7      Cu     0.455510000000     0.494330000000     0.498270000000     0.845574   
Cu8      Cu     0.538860000000     0.499370000000     0.498340000000     0.845445   
Cu9      Cu     0.996740000000     0.038360000000     0.997050000000     0.842368   
Cu10     Cu     0.996760000000     0.955090000000     0.997040000000     0.842144   
Cu11     Cu     0.995930000000     0.538660000000     0.997380000000     0.841714   
Cu12     Cu     0.998140000000     0.455460000000     0.997370000000     0.841754   
Cu13     Cu     0.496780000000     0.038360000000     0.997000000000     0.842901   
Cu14     Cu     0.496720000000     0.955090000000     0.997000000000     0.842482   
Cu15     Cu     0.499550000000     0.538730000000     0.998340000000     0.845157   
Cu16     Cu     0.494510000000     0.455380000000     0.998280000000     0.845271   
H1       H      0.653700000000     0.554700000000     0.970660000000     0.0438672  
H2       H      0.652860000000     0.431230000000     0.965180000000     0.043527   
H3       H      0.747600000000     0.407390000000     0.993320000000     0.0443539  
H4       H      0.746530000000     0.576190000000     0.002680000000     0.04396    
H5       H      0.839820000000     0.556550000000     0.971230000000     0.0430696  
H6       H      0.841920000000     0.429240000000     0.023890000000     0.0437022  
H7       H      0.653660000000     0.551980000000     0.031570000000     0.0437045  
H8       H      0.653130000000     0.428680000000     0.026110000000     0.0440183  
H9       H      0.841390000000     0.433330000000     0.963050000000     0.0442426  
H10      H      0.840050000000     0.552470000000     0.032080000000     0.0441272  
H11      H      0.340350000000     0.439420000000     0.970890000000     0.0438646  
H12      H      0.341190000000     0.562920000000     0.965510000000     0.0435628  
H13      H      0.246470000000     0.586730000000     0.993640000000     0.0443731  
H14      H      0.247530000000     0.417920000000     0.002910000000     0.0439221  
H15      H      0.154270000000     0.437580000000     0.971440000000     0.043096   
H16      H      0.152120000000     0.564870000000     0.024150000000     0.0437153  
H17      H      0.340430000000     0.442120000000     0.031810000000     0.0436789  
H18      H      0.340960000000     0.565400000000     0.026430000000     0.0440469  
H19      H      0.152700000000     0.560820000000     0.963320000000     0.044273   
H20      H      0.153990000000     0.441640000000     0.032290000000     0.0441485  
H21      H      0.652870000000     0.934160000000     0.026080000000     0.043468   
H22      H      0.653180000000     0.057640000000     0.028920000000     0.0447126  
H23      H      0.746740000000     0.081190000000     0.997030000000     0.0443152  
H24      H      0.746760000000     0.912120000000     0.997000000000     0.0440665  
H25      H      0.840330000000     0.935680000000     0.028890000000     0.0445491  
H26      H      0.840310000000     0.057660000000     0.965140000000     0.0444625  
H27      H      0.653170000000     0.935680000000     0.965120000000     0.0443284  
H28      H      0.652870000000     0.059150000000     0.967960000000     0.0433786  
H29      H      0.840610000000     0.059160000000     0.026100000000     0.0435638  
H30      H      0.840640000000     0.934190000000     0.967930000000     0.043207   
H31      H      0.152850000000     0.059270000000     0.967970000000     0.043309   
H32      H      0.153170000000     0.935780000000     0.965170000000     0.0444347  
H33      H      0.246760000000     0.912260000000     0.997030000000     0.0441975  
H34      H      0.246740000000     0.081320000000     0.997010000000     0.0442166  
H35      H      0.340320000000     0.057770000000     0.965090000000     0.0444137  
H36      H      0.340330000000     0.935810000000     0.028880000000     0.0446481  
H37      H      0.153180000000     0.057760000000     0.028930000000     0.0446779  
H38      H      0.152890000000     0.934290000000     0.026140000000     0.0435404  
H39      H      0.340620000000     0.934300000000     0.967920000000     0.0433127  
H40      H      0.340640000000     0.059290000000     0.026050000000     0.0435419  
H41      H      0.558100000000     0.529720000000     0.153530000000     0.0411357  
H42      H      0.486220000000     0.429310000000     0.155520000000     0.0459183  
H43      H      0.437980000000     0.436530000000     0.248280000000     0.0446327  
H44      H      0.556510000000     0.557090000000     0.248330000000     0.0445854  
H45      H      0.564690000000     0.508810000000     0.341020000000     0.0458756  
H46      H      0.429890000000     0.484620000000     0.341040000000     0.0459275  
H47      H      0.508130000000     0.564510000000     0.155660000000     0.0459166  
H48      H      0.436240000000     0.464100000000     0.153560000000     0.0411483  
H49      H      0.465530000000     0.435240000000     0.343040000000     0.0411714  
H50      H      0.529080000000     0.558200000000     0.343110000000     0.0411512  
H51      H      0.509000000000     0.564560000000     0.841020000000     0.0458702  
H52      H      0.435440000000     0.465380000000     0.843060000000     0.0411481  
H53      H      0.436700000000     0.437830000000     0.748300000000     0.0445788  
H54      H      0.557240000000     0.556380000000     0.748320000000     0.0445792  
H55      H      0.529850000000     0.557970000000     0.653510000000     0.0411047  
H56      H      0.464230000000     0.436100000000     0.653570000000     0.0410768  
H57      H      0.558390000000     0.528950000000     0.843090000000     0.0411344  
H58      H      0.484810000000     0.429750000000     0.841050000000     0.0459011  
H59      H      0.429450000000     0.486080000000     0.655540000000     0.0458626  
H60      H      0.564640000000     0.508000000000     0.655640000000     0.0458896  
H61      H      0.564330000000     0.983810000000     0.339730000000     0.0457635  
H62      H      0.466360000000     0.058950000000     0.341760000000     0.0414443  
H63      H      0.438240000000     0.057680000000     0.247050000000     0.0446849  
H64      H      0.555680000000     0.936060000000     0.246990000000     0.0445281  
H65      H      0.557640000000     0.963820000000     0.152200000000     0.0413687  
H66      H      0.435930000000     0.029670000000     0.152340000000     0.0414672  
H67      H      0.527910000000     0.935010000000     0.341790000000     0.0413792  
H68      H      0.429910000000     0.010180000000     0.339910000000     0.0459271  
H69      H      0.485950000000     0.064390000000     0.154170000000     0.0458898  
H70      H      0.507600000000     0.929120000000     0.154290000000     0.0458184  
H71      H      0.484460000000     0.929360000000     0.839780000000     0.0458321  
H72      H      0.558450000000     0.028230000000     0.841860000000     0.0413649  
H73      H      0.557320000000     0.055890000000     0.747080000000     0.0447563  
H74      H      0.436650000000     0.937490000000     0.746940000000     0.0446052  
H75      H      0.464440000000     0.935680000000     0.652190000000     0.0413095  
H76      H      0.529800000000     0.057670000000     0.652270000000     0.0413771  
H77      H      0.435240000000     0.965200000000     0.841690000000     0.0412591  
H78      H      0.509230000000     0.064070000000     0.839760000000     0.045894   
H79      H      0.564680000000     0.007760000000     0.654310000000     0.0459218  
H80      H      0.429530000000     0.985560000000     0.654160000000     0.0458129  
H81      H      0.556650000000     0.839610000000     0.470880000000     0.0434693  
H82      H      0.433450000000     0.841170000000     0.462650000000     0.0441153  
H83      H      0.407510000000     0.747400000000     0.493040000000     0.0443079  
H84      H      0.576290000000     0.746360000000     0.502480000000     0.0441832  
H85      H      0.554830000000     0.653480000000     0.470590000000     0.0442568  
H86      H      0.428790000000     0.652980000000     0.525990000000     0.0437279  
H87      H      0.552560000000     0.839920000000     0.531730000000     0.0442792  
H88      H      0.429320000000     0.841770000000     0.523480000000     0.0433843  
H89      H      0.431360000000     0.652620000000     0.465070000000     0.0434729  
H90      H      0.552070000000     0.653530000000     0.531510000000     0.0438318  
H91      H      0.442280000000     0.340220000000     0.531860000000     0.0438083  
H92      H      0.565540000000     0.340740000000     0.526410000000     0.0437038  
H93      H      0.586830000000     0.246280000000     0.493470000000     0.044317   
H94      H      0.418040000000     0.247360000000     0.502850000000     0.0441762  
H95      H      0.441760000000     0.153760000000     0.532090000000     0.0443115  
H96      H      0.560890000000     0.152560000000     0.463040000000     0.044181   
H97      H      0.439530000000     0.340200000000     0.470940000000     0.044266   
H98      H      0.563030000000     0.341040000000     0.465480000000     0.0434561  
H99      H      0.564980000000     0.151890000000     0.523870000000     0.0434212  
H100     H      0.437670000000     0.154140000000     0.471240000000     0.0435157  
H101     H      0.965860000000     0.435050000000     0.342090000000     0.0413219  
H102     H      0.064070000000     0.509920000000     0.340170000000     0.0458972  
H103     H      0.055580000000     0.557790000000     0.247430000000     0.0447399  
H104     H      0.938130000000     0.436190000000     0.247320000000     0.0445784  
H105     H      0.986260000000     0.429370000000     0.154560000000     0.0458336  
H106     H      0.007540000000     0.564690000000     0.154620000000     0.0459252  
H107     H      0.929590000000     0.483960000000     0.340130000000     0.0458362  
H108     H      0.027780000000     0.558820000000     0.342190000000     0.0414267  
H109     H      0.057670000000     0.530130000000     0.152650000000     0.0414149  
H110     H      0.936140000000     0.463940000000     0.152550000000     0.0413672  
H111     H      0.935330000000     0.528250000000     0.842140000000     0.0413977  
H112     H      0.009840000000     0.429750000000     0.840220000000     0.045882   
H113     H      0.057320000000     0.437760000000     0.747350000000     0.0446366  
H114     H      0.936620000000     0.556130000000     0.747360000000     0.0444872  
H115     H      0.929330000000     0.508250000000     0.654610000000     0.0457689  
H116     H      0.064400000000     0.485410000000     0.654490000000     0.0458496  
H117     H      0.984350000000     0.564350000000     0.840110000000     0.0457601  
H118     H      0.058850000000     0.465880000000     0.842060000000     0.0414386  
H119     H      0.029240000000     0.435690000000     0.652640000000     0.0414911  
H120     H      0.964460000000     0.557970000000     0.652580000000     0.0413837  
H121     H      0.064140000000     0.984400000000     0.339830000000     0.0458207  
H122     H      0.965320000000     0.058450000000     0.341800000000     0.0413886  
H123     H      0.937440000000     0.057000000000     0.247050000000     0.0446441  
H124     H      0.056060000000     0.936540000000     0.247070000000     0.0446602  
H125     H      0.057850000000     0.964300000000     0.152300000000     0.0413558  
H126     H      0.935590000000     0.029140000000     0.152300000000     0.0413949  
H127     H      0.028260000000     0.935200000000     0.341850000000     0.0414334  
H128     H      0.929440000000     0.009260000000     0.339870000000     0.0458885  
H129     H      0.985320000000     0.064260000000     0.154250000000     0.045831   
H130     H      0.008100000000     0.929190000000     0.154300000000     0.0458747  
H131     H      0.985400000000     0.929210000000     0.839790000000     0.0457307  
H132     H      0.057910000000     0.029170000000     0.841800000000     0.0414188  
H133     H      0.056090000000     0.057020000000     0.747050000000     0.0447518  
H134     H      0.937480000000     0.936540000000     0.747010000000     0.0444462  
H135     H      0.965310000000     0.935200000000     0.652240000000     0.0413019  
H136     H      0.028260000000     0.058440000000     0.652290000000     0.0414999  
H137     H      0.935660000000     0.964310000000     0.841780000000     0.0412513  
H138     H      0.008170000000     0.064280000000     0.839840000000     0.0459279  
H139     H      0.064130000000     0.009250000000     0.654250000000     0.0459541  
H140     H      0.929440000000     0.984390000000     0.654240000000     0.0457535  
H141     H      0.938580000000     0.653060000000     0.460450000000     0.0439995  
H142     H      0.061390000000     0.653090000000     0.473640000000     0.0436939  
H143     H      0.080790000000     0.746850000000     0.506260000000     0.0443872  
H144     H      0.912690000000     0.746840000000     0.488200000000     0.0441264  
H145     H      0.938600000000     0.840540000000     0.460180000000     0.0439928  
H146     H      0.054910000000     0.840620000000     0.534010000000     0.0441522  
H147     H      0.932100000000     0.653130000000     0.521080000000     0.0435028  
H148     H      0.054890000000     0.653160000000     0.534270000000     0.0441736  
H149     H      0.061400000000     0.840540000000     0.473380000000     0.0436544  
H150     H      0.932100000000     0.840620000000     0.520810000000     0.0435291  
H151     H      0.938740000000     0.340550000000     0.534190000000     0.0440926  
H152     H      0.061530000000     0.340560000000     0.521000000000     0.0435897  
H153     H      0.080920000000     0.246840000000     0.488150000000     0.0442877  
H154     H      0.912830000000     0.246860000000     0.506200000000     0.0442582  
H155     H      0.938690000000     0.153090000000     0.533990000000     0.0440945  
H156     H      0.054990000000     0.153130000000     0.460160000000     0.0441301  
H157     H      0.932240000000     0.340610000000     0.473560000000     0.043619   
H158     H      0.055050000000     0.340620000000     0.460370000000     0.0440971  
H159     H      0.061500000000     0.153070000000     0.520790000000     0.0436262  
H160     H      0.932200000000     0.153150000000     0.473360000000     0.0436173  
N1       N      0.861770000000     0.493240000000     0.997460000000    -0.166673   
N2       N      0.632340000000     0.491770000000     0.998350000000    -0.166774   
N3       N      0.132300000000     0.500880000000     0.997670000000    -0.166662   
N4       N      0.361730000000     0.502350000000     0.998600000000    -0.166779   
N5       N      0.861440000000     0.996680000000     0.997020000000    -0.166637   
N6       N      0.632060000000     0.996660000000     0.997020000000    -0.166568   
N7       N      0.361440000000     0.996790000000     0.996980000000    -0.166562   
N8       N      0.132060000000     0.996770000000     0.997060000000    -0.166524   
N9       N      0.497290000000     0.496710000000     0.362950000000    -0.16666    
N10      N      0.497150000000     0.496940000000     0.133670000000    -0.1666     
N11      N      0.497060000000     0.497010000000     0.633670000000    -0.16665    
N12      N      0.496910000000     0.497160000000     0.862950000000    -0.166671   
N13      N      0.496750000000     0.996730000000     0.132330000000    -0.166496   
N14      N      0.497150000000     0.997000000000     0.361720000000    -0.166499   
N15      N      0.497130000000     0.996680000000     0.632320000000    -0.166558   
N16      N      0.496810000000     0.996730000000     0.861690000000    -0.166496   
N17      N      0.491880000000     0.632160000000     0.498280000000    -0.16661    
N18      N      0.493340000000     0.861580000000     0.497070000000    -0.16654    
N19      N      0.500980000000     0.132120000000     0.497400000000    -0.166521   
N20      N      0.502480000000     0.361540000000     0.498620000000    -0.166581   
N21      N      0.996920000000     0.497040000000     0.132680000000    -0.166468   
N22      N      0.996820000000     0.496920000000     0.362060000000    -0.166511   
N23      N      0.996840000000     0.496810000000     0.632660000000    -0.166468   
N24      N      0.997110000000     0.497070000000     0.862050000000    -0.166451   
N25      N      0.996720000000     0.996720000000     0.132370000000    -0.166573   
N26      N      0.996790000000     0.996840000000     0.361750000000    -0.166572   
N27      N      0.996780000000     0.996830000000     0.632340000000    -0.166545   
N28      N      0.996780000000     0.996740000000     0.861720000000    -0.166594   
N29      N      0.996750000000     0.861550000000     0.497070000000    -0.166616   
N30      N      0.996740000000     0.632140000000     0.497370000000    -0.166671   
N31      N      0.996840000000     0.132140000000     0.497060000000    -0.166635   
N32      N      0.996890000000     0.361550000000     0.497300000000    -0.166667   
O1       O      0.959380000000     0.065080000000     0.501070000000    -0.396661   
O2       O      0.959330000000     0.928640000000     0.493020000000    -0.396729   
O3       O      0.959510000000     0.991590000000     0.565320000000    -0.39631    
O4       O      0.959520000000     0.002120000000     0.428770000000    -0.396127   
O5       O      0.034070000000     0.991570000000     0.428770000000    -0.396176   
O6       O      0.034070000000     0.002100000000     0.565320000000    -0.395924   
O7       O      0.034210000000     0.928620000000     0.501080000000    -0.396564   
O8       O      0.034250000000     0.065050000000     0.493020000000    -0.396504   
O9       O      0.959430000000     0.428600000000     0.501340000000    -0.396875   
O10      O      0.959340000000     0.565040000000     0.493360000000    -0.396885   
O11      O      0.959550000000     0.491580000000     0.429080000000    -0.39651    
O12      O      0.959540000000     0.502030000000     0.565630000000    -0.396416   
O13      O      0.034110000000     0.491620000000     0.565620000000    -0.396351   
O14      O      0.034090000000     0.502170000000     0.429080000000    -0.396357   
O15      O      0.034210000000     0.565090000000     0.501380000000    -0.396726   
O16      O      0.034300000000     0.428650000000     0.493310000000    -0.396727   
O17      O      0.461870000000     0.066020000000     0.500790000000    -0.397121   
O18      O      0.457510000000     0.929600000000     0.493290000000    -0.396427   
O19      O      0.459710000000     0.992730000000     0.565300000000    -0.396511   
O20      O      0.459980000000     0.002900000000     0.428740000000    -0.396339   
O21      O      0.534330000000     0.990960000000     0.428730000000    -0.39649    
O22      O      0.534570000000     0.000800000000     0.565320000000    -0.396261   
O23      O      0.532430000000     0.927680000000     0.500620000000    -0.397426   
O24      O      0.536800000000     0.064110000000     0.493460000000    -0.396213   
O25      O      0.462660000000     0.426860000000     0.498790000000    -0.400389   
O26      O      0.456470000000     0.563400000000     0.497790000000    -0.394952   
O27      O      0.459780000000     0.492840000000     0.429870000000    -0.397759   
O28      O      0.459600000000     0.493640000000     0.566690000000    -0.397746   
O29      O      0.534650000000     0.500230000000     0.566750000000    -0.397671   
O30      O      0.534700000000     0.500710000000     0.429930000000    -0.397759   
O31      O      0.531700000000     0.566850000000     0.498680000000    -0.400299   
O32      O      0.537890000000     0.430300000000     0.498010000000    -0.395006   
O33      O      0.928480000000     0.034210000000     0.993780000000    -0.3968     
O34      O      0.064990000000     0.034270000000     0.000310000000    -0.396317   
O35      O      0.001440000000     0.034090000000     0.928740000000    -0.396123   
O36      O      0.992040000000     0.034080000000     0.065360000000    -0.39626    
O37      O      0.001430000000     0.959360000000     0.065350000000    -0.396101   
O38      O      0.992090000000     0.959370000000     0.928730000000    -0.396615   
O39      O      0.065010000000     0.959230000000     0.993800000000    -0.396778   
O40      O      0.928510000000     0.959180000000     0.000280000000    -0.396637   
O41      O      0.927860000000     0.532340000000     0.000980000000    -0.396887   
O42      O      0.064290000000     0.536710000000     0.993810000000    -0.396258   
O43      O      0.991150000000     0.534250000000     0.929080000000    -0.396505   
O44      O      0.000980000000     0.534490000000     0.065680000000    -0.396023   
O45      O      0.992980000000     0.459610000000     0.065660000000    -0.3963     
O46      O      0.003010000000     0.459890000000     0.929080000000    -0.39625    
O47      O      0.066200000000     0.461780000000     0.001070000000    -0.39677    
O48      O      0.929780000000     0.457410000000     0.993690000000    -0.39638    
O49      O      0.428520000000     0.034280000000     0.993720000000    -0.396904   
O50      O      0.565020000000     0.034200000000     0.000280000000    -0.396492   
O51      O      0.501520000000     0.034080000000     0.928700000000    -0.396493   
O52      O      0.492080000000     0.034090000000     0.065310000000    -0.396326   
O53      O      0.501400000000     0.959360000000     0.065310000000    -0.396398   
O54      O      0.492020000000     0.959370000000     0.928690000000    -0.396684   
O55      O      0.564980000000     0.959170000000     0.993750000000    -0.397056   
O56      O      0.428480000000     0.959250000000     0.000260000000    -0.396636   
O57      O      0.430480000000     0.537760000000     0.998000000000    -0.395042   
O58      O      0.567020000000     0.531580000000     0.998700000000    -0.400378   
O59      O      0.500900000000     0.534570000000     0.929920000000    -0.39766    
O60      O      0.500390000000     0.534530000000     0.066750000000    -0.397455   
O61      O      0.493800000000     0.459470000000     0.066690000000    -0.397535   
O62      O      0.493040000000     0.459650000000     0.929880000000    -0.397801   
O63      O      0.563590000000     0.456350000000     0.997820000000    -0.394963   
O64      O      0.427040000000     0.462530000000     0.998770000000    -0.400442   


