data_structure

_audit_creation_method RASPA-1.0
_audit_creation_date 2023-5-23
_audit_author_name 'Poobodin Mano'

_cell_length_a    44.4651
_cell_length_b    44.3059
_cell_length_c    29.6698
_cell_angle_alpha 89.9999
_cell_angle_beta  90.0001
_cell_angle_gamma 90
_cell_volume      58451.5

_symmetry_cell_setting          triclinic
_symmetry_space_group_name_Hall 'P 1'
_symmetry_space_group_name_H-M  'P 1'
_symmetry_Int_Tables_number     1

_symmetry_equiv_pos_as_xyz 'x,y,z'

loop_
_atom_site_label
_atom_site_type_symbol
_atom_site_fract_x
_atom_site_fract_y
_atom_site_fract_z
_atom_site_charge
C1       C      0.330370000000     0.996870000000     0.907390000000     0.400754   
C2       C      0.330380000000     0.001220000000     0.086450000000     0.405081   
C3       C      0.270560000000     0.999050000000     0.996930000000     0.401358   
C4       C      0.390080000000     0.999040000000     0.996910000000     0.400803   
C5       C      0.333940000000     0.001270000000     0.407400000000     0.404994   
C6       C      0.333920000000     0.996810000000     0.586450000000     0.400895   
C7       C      0.393750000000     0.999040000000     0.496930000000     0.401136   
C8       C      0.274300000000     0.999040000000     0.496910000000     0.402154   
C9       C      0.994650000000     0.665400000000     0.106930000000     0.401094   
C10      C      0.993840000000     0.665520000000     0.927760000000     0.401261   
C11      C      0.995340000000     0.725310000000     0.017320000000     0.402336   
C12      C      0.993340000000     0.605500000000     0.016340000000     0.401841   
C13      C      0.994280000000     0.663450000000     0.606900000000     0.401369   
C14      C      0.993720000000     0.668480000000     0.427880000000     0.400813   
C15      C      0.995890000000     0.725870000000     0.521490000000     0.401016   
C16      C      0.992370000000     0.606020000000     0.513030000000     0.400344   
C17      C      0.664150000000     0.998620000000     0.086280000000     0.401257   
C18      C      0.664150000000     0.999450000000     0.907150000000     0.401167   
C19      C      0.604280000000     0.999030000000     0.996720000000     0.400795   
C20      C      0.723800000000     0.999030000000     0.996710000000     0.401706   
C21      C      0.667610000000     0.998720000000     0.586280000000     0.401183   
C22      C      0.667580000000     0.999350000000     0.407150000000     0.401299   
C23      C      0.607880000000     0.999030000000     0.496740000000     0.401034   
C24      C      0.727370000000     0.999040000000     0.496690000000     0.401803   
C25      C      0.997120000000     0.058590000000     0.991540000000     0.400205   
C26      C      0.997130000000     0.939490000000     0.002060000000     0.400644   
C27      C      0.056680000000     0.999050000000     0.996830000000     0.399264   
C28      C      0.937680000000     0.999030000000     0.996770000000     0.399633   
C29      C      0.001380000000     0.058170000000     0.482280000000     0.405      
C30      C      0.001390000000     0.939940000000     0.511160000000     0.404991   
C31      C      0.060560000000     0.999070000000     0.496750000000     0.401456   
C32      C      0.941230000000     0.999050000000     0.496700000000     0.401709   
C33      C      0.993850000000     0.332580000000     0.065530000000     0.401222   
C34      C      0.994660000000     0.332640000000     0.886360000000     0.401327   
C35      C      0.993340000000     0.392570000000     0.976900000000     0.401447   
C36      C      0.995350000000     0.272760000000     0.976020000000     0.402534   
C37      C      0.994290000000     0.334670000000     0.386390000000     0.401409   
C38      C      0.993730000000     0.329630000000     0.565410000000     0.400717   
C39      C      0.992380000000     0.392100000000     0.480270000000     0.400563   
C40      C      0.995900000000     0.272250000000     0.471800000000     0.401041   
C41      C      0.967300000000     0.331570000000     0.813130000000    -0.0216842  
C42      C      0.021130000000     0.329550000000     0.638620000000    -0.0221468  
C43      C      0.966490000000     0.327920000000     0.639040000000    -0.0218511  
C44      C      0.978440000000     0.328860000000     0.685760000000     0.0107817  
C45      C      0.009600000000     0.329610000000     0.685480000000     0.0164696  
C46      C      0.026270000000     0.330630000000     0.725560000000    -0.0675802  
C47      C      0.021970000000     0.332010000000     0.812740000000    -0.0222969  
C48      C      0.962180000000     0.329430000000     0.726220000000    -0.064278   
C49      C      0.010010000000     0.331000000000     0.766030000000     0.0166171  
C50      C      0.978840000000     0.330580000000     0.766300000000     0.0106882  
C51      C      0.021100000000     0.333920000000     0.138820000000    -0.0221086  
C52      C      0.966970000000     0.335130000000     0.313120000000    -0.0216179  
C53      C      0.021630000000     0.335880000000     0.312880000000    -0.0222049  
C54      C      0.009740000000     0.335350000000     0.266140000000     0.0166722  
C55      C      0.978580000000     0.334790000000     0.266310000000     0.0106949  
C56      C      0.961980000000     0.333740000000     0.226170000000    -0.064308   
C57      C      0.966450000000     0.332260000000     0.139040000000    -0.0217406  
C58      C      0.026070000000     0.335140000000     0.225750000000    -0.0676368  
C59      C      0.978310000000     0.333430000000     0.185780000000     0.0107806  
C60      C      0.009480000000     0.334240000000     0.185610000000     0.0165435  
C61      C      0.021440000000     0.108390000000     0.503290000000    -0.0243227  
C62      C      0.975050000000     0.222160000000     0.448230000000    -0.0219294  
C63      C      0.021330000000     0.224270000000     0.491730000000    -0.0227913  
C64      C      0.012450000000     0.192590000000     0.483190000000     0.0179363  
C65      C      0.987240000000     0.191270000000     0.455800000000     0.010244   
C66      C      0.976320000000     0.163530000000     0.439540000000    -0.0635943  
C67      C      0.984520000000     0.105190000000     0.443060000000    -0.0231209  
C68      C      0.025600000000     0.166450000000     0.500790000000    -0.0686581  
C69      C      0.990930000000     0.137280000000     0.454710000000     0.0105217  
C70      C      0.013540000000     0.138840000000     0.486770000000     0.0183244  
C71      C      0.014980000000     0.108750000000     0.018070000000    -0.0226354  
C72      C      0.973310000000     0.222860000000     0.955620000000    -0.0219007  
C73      C      0.019010000000     0.224690000000     0.000590000000    -0.0223751  
C74      C      0.008820000000     0.193100000000     0.994530000000     0.0171078  
C75      C      0.984010000000     0.191950000000     0.966310000000     0.0110764  
C76      C      0.972390000000     0.164360000000     0.951110000000    -0.0643739  
C77      C      0.978890000000     0.106270000000     0.956590000000    -0.0219542  
C78      C      0.020770000000     0.166920000000     0.014060000000    -0.0679045  
C79      C      0.985700000000     0.138080000000     0.968310000000     0.0109393  
C80      C      0.007820000000     0.139410000000     0.001170000000     0.0172865  
C81      C      0.892340000000     0.018200000000     0.526030000000    -0.0225333  
C82      C      0.776260000000     0.975560000000     0.475500000000    -0.021769   
C83      C      0.776260000000     0.022530000000     0.517870000000    -0.0225609  
C84      C      0.807450000000     0.011880000000     0.510030000000     0.017126   
C85      C      0.807460000000     0.986210000000     0.483330000000     0.0108805  
C86      C      0.834310000000     0.973850000000     0.466820000000    -0.0643113  
C87      C      0.892350000000     0.979900000000     0.467340000000    -0.0218739  
C88      C      0.834300000000     0.024250000000     0.526540000000    -0.0678923  
C89      C      0.861150000000     0.987430000000     0.481050000000     0.0108294  
C90      C      0.861150000000     0.010670000000     0.512320000000     0.0170094  
C91      C      0.665050000000     0.026890000000     0.833610000000    -0.0221638  
C92      C      0.667450000000     0.971320000000     0.659850000000    -0.0216759  
C93      C      0.667020000000     0.026180000000     0.659510000000    -0.0220666  
C94      C      0.666600000000     0.014570000000     0.706340000000     0.0165697  
C95      C      0.666690000000     0.983290000000     0.706570000000     0.0107206  
C96      C      0.665980000000     0.966940000000     0.746970000000    -0.0642696  
C97      C      0.664430000000     0.972030000000     0.833890000000    -0.021637   
C98      C      0.666090000000     0.031280000000     0.746460000000    -0.0676515  
C99      C      0.665330000000     0.983640000000     0.787090000000     0.0106207  
C100     C      0.665530000000     0.014930000000     0.786880000000     0.0166863  
C101     C      0.667420000000     0.026750000000     0.333570000000    -0.0223049  
C102     C      0.665050000000     0.971170000000     0.159820000000    -0.0216184  
C103     C      0.664420000000     0.026030000000     0.159530000000    -0.022092   
C104     C      0.665310000000     0.014420000000     0.206340000000     0.0166117  
C105     C      0.665520000000     0.983140000000     0.206550000000     0.0106634  
C106     C      0.666070000000     0.966790000000     0.246970000000    -0.0641998  
C107     C      0.666990000000     0.971890000000     0.333920000000    -0.0214499  
C108     C      0.665950000000     0.031120000000     0.246450000000    -0.067665   
C109     C      0.666570000000     0.983490000000     0.287090000000     0.0105225  
C110     C      0.666660000000     0.014780000000     0.286860000000     0.0167784  
C111     C      0.772700000000     0.975750000000     0.975040000000    -0.0219264  
C112     C      0.888790000000     0.017820000000     0.026610000000    -0.0225588  
C113     C      0.888800000000     0.980240000000     0.966890000000    -0.0219978  
C114     C      0.857600000000     0.987590000000     0.980810000000     0.0108341  
C115     C      0.857590000000     0.010470000000     0.012670000000     0.017068   
C116     C      0.830740000000     0.023900000000     0.027200000000    -0.0678433  
C117     C      0.772690000000     0.022320000000     0.018390000000    -0.0224678  
C118     C      0.830750000000     0.974160000000     0.966260000000    -0.064385   
C119     C      0.803890000000     0.011730000000     0.010360000000     0.0171207  
C120     C      0.803890000000     0.986340000000     0.983090000000     0.0109028  
C121     C      0.019010000000     0.556790000000     0.507380000000    -0.0223921  
C122     C      0.964360000000     0.440940000000     0.486490000000    -0.0217286  
C123     C      0.019020000000     0.441330000000     0.485900000000    -0.0224216  
C124     C      0.007120000000     0.472320000000     0.491580000000     0.0171273  
C125     C      0.975950000000     0.472230000000     0.491750000000     0.0103238  
C126     C      0.959460000000     0.499060000000     0.496640000000    -0.0637537  
C127     C      0.964360000000     0.557170000000     0.506800000000    -0.0217148  
C128     C      0.023560000000     0.499060000000     0.496640000000    -0.0680064  
C129     C      0.975950000000     0.525890000000     0.501530000000     0.0103244  
C130     C      0.007110000000     0.525800000000     0.501700000000     0.0171093  
C131     C      0.021330000000     0.773860000000     0.501610000000    -0.0227979  
C132     C      0.984530000000     0.892930000000     0.550370000000    -0.0230449  
C133     C      0.021480000000     0.889730000000     0.490160000000    -0.0243727  
C134     C      0.013570000000     0.859280000000     0.506670000000     0.0183334  
C135     C      0.990950000000     0.860830000000     0.538720000000     0.0103318  
C136     C      0.976320000000     0.834570000000     0.553820000000    -0.0635398  
C137     C      0.975030000000     0.775960000000     0.545080000000    -0.0220602  
C138     C      0.025620000000     0.831670000000     0.492610000000    -0.0687813  
C139     C      0.987240000000     0.806850000000     0.537540000000     0.0102346  
C140     C      0.012460000000     0.805530000000     0.510170000000     0.0179462  
C141     C      0.965620000000     0.556650000000     0.010460000000    -0.0216387  
C142     C      0.020290000000     0.441670000000     0.982110000000    -0.0223781  
C143     C      0.965620000000     0.441420000000     0.982730000000    -0.0217674  
C144     C      0.977290000000     0.472440000000     0.989780000000     0.0106387  
C145     C      0.008460000000     0.472510000000     0.989600000000     0.0170126  
C146     C      0.024920000000     0.499040000000     0.996580000000    -0.0679908  
C147     C      0.020290000000     0.556410000000     0.011080000000    -0.0222478  
C148     C      0.960810000000     0.499040000000     0.996580000000    -0.0641447  
C149     C      0.008460000000     0.525570000000     0.003570000000     0.0170307  
C150     C      0.977290000000     0.525630000000     0.003390000000     0.0106796  
C151     C      0.966450000000     0.665860000000     0.854250000000    -0.0215861  
C152     C      0.021620000000     0.662250000000     0.680410000000    -0.0222148  
C153     C      0.966960000000     0.662990000000     0.680170000000    -0.0216329  
C154     C      0.978570000000     0.663330000000     0.726980000000     0.0106496  
C155     C      0.009730000000     0.662780000000     0.727150000000     0.016702   
C156     C      0.026060000000     0.662980000000     0.767530000000    -0.0676708  
C157     C      0.021090000000     0.664200000000     0.854470000000    -0.0221482  
C158     C      0.961970000000     0.664380000000     0.767120000000    -0.0642143  
C159     C      0.009470000000     0.663890000000     0.807680000000     0.016567   
C160     C      0.978300000000     0.664700000000     0.807510000000     0.0106834  
C161     C      0.967300000000     0.666460000000     0.180160000000    -0.0215822  
C162     C      0.021120000000     0.668550000000     0.354670000000    -0.0221428  
C163     C      0.966480000000     0.670180000000     0.354250000000    -0.0218314  
C164     C      0.978430000000     0.669220000000     0.307530000000     0.010765   
C165     C      0.009590000000     0.668470000000     0.307810000000     0.0164653  
C166     C      0.026260000000     0.667440000000     0.267720000000    -0.0676006  
C167     C      0.021960000000     0.666030000000     0.180550000000    -0.0223187  
C168     C      0.962170000000     0.668630000000     0.267070000000    -0.0642446  
C169     C      0.010000000000     0.667050000000     0.227270000000     0.016662   
C170     C      0.978840000000     0.667470000000     0.226990000000     0.0106217  
C171     C      0.978910000000     0.891800000000     0.036970000000    -0.0218929  
C172     C      0.019010000000     0.773390000000     0.992830000000    -0.0226734  
C173     C      0.973310000000     0.775210000000     0.037780000000    -0.0218662  
C174     C      0.984010000000     0.806120000000     0.027150000000     0.0110642  
C175     C      0.008840000000     0.804980000000     0.998930000000     0.0171823  
C176     C      0.020790000000     0.831170000000     0.979450000000    -0.0680023  
C177     C      0.015020000000     0.889340000000     0.975510000000    -0.0226646  
C178     C      0.972400000000     0.833710000000     0.042380000000    -0.0644269  
C179     C      0.007860000000     0.858670000000     0.992380000000     0.0171309  
C180     C      0.985720000000     0.859990000000     0.025230000000     0.0109787  
C181     C      0.558900000000     0.026460000000     0.495900000000    -0.0221952  
C182     C      0.442720000000     0.971610000000     0.497660000000    -0.0215789  
C183     C      0.442730000000     0.026460000000     0.496170000000    -0.0221079  
C184     C      0.473940000000     0.014670000000     0.496440000000     0.0167684  
C185     C      0.473940000000     0.983390000000     0.497330000000     0.0107176  
C186     C      0.500810000000     0.966870000000     0.497800000000    -0.0642081  
C187     C      0.558900000000     0.971610000000     0.497660000000    -0.0215633  
C188     C      0.500810000000     0.031200000000     0.495900000000    -0.0676798  
C189     C      0.527690000000     0.983390000000     0.497300000000     0.0107041  
C190     C      0.527690000000     0.014670000000     0.496340000000     0.0167828  
C191     C      0.225460000000     0.977320000000     0.471830000000    -0.0220025  
C192     C      0.109400000000     0.015300000000     0.529820000000    -0.0225136  
C193     C      0.109410000000     0.982830000000     0.463730000000    -0.0218621  
C194     C      0.140600000000     0.988930000000     0.479000000000     0.0110752  
C195     C      0.140590000000     0.009190000000     0.514610000000     0.017234   
C196     C      0.167420000000     0.021520000000     0.531220000000    -0.0678399  
C197     C      0.225450000000     0.020760000000     0.521940000000    -0.0225824  
C198     C      0.167440000000     0.976590000000     0.462440000000    -0.0643624  
C199     C      0.194260000000     0.010710000000     0.512420000000     0.0172471  
C200     C      0.194270000000     0.987380000000     0.481290000000     0.011141   
C201     C      0.439070000000     0.971600000000     0.997060000000    -0.0217724  
C202     C      0.555290000000     0.026460000000     0.996250000000    -0.0222691  
C203     C      0.555290000000     0.971600000000     0.997250000000    -0.0217021  
C204     C      0.524060000000     0.983390000000     0.997020000000     0.0107159  
C205     C      0.524060000000     0.014670000000     0.996540000000     0.016756   
C206     C      0.497180000000     0.031200000000     0.996420000000    -0.067648   
C207     C      0.439080000000     0.026470000000     0.996710000000    -0.022359   
C208     C      0.497180000000     0.966870000000     0.997210000000    -0.0641872  
C209     C      0.470300000000     0.014670000000     0.996700000000     0.016778   
C210     C      0.470300000000     0.983390000000     0.997000000000     0.0107182  
C211     C      0.331910000000     0.968430000000     0.659460000000    -0.0216901  
C212     C      0.332320000000     0.023270000000     0.833620000000    -0.0223305  
C213     C      0.329420000000     0.968490000000     0.834330000000    -0.02165    
C214     C      0.330690000000     0.980020000000     0.787270000000     0.0100403  
C215     C      0.332360000000     0.011260000000     0.787120000000     0.017265   
C216     C      0.333880000000     0.027710000000     0.746950000000    -0.06841    
C217     C      0.334930000000     0.023210000000     0.660270000000    -0.0223579  
C218     C      0.330400000000     0.963470000000     0.746890000000    -0.0636386  
C219     C      0.333620000000     0.011220000000     0.706750000000     0.017267   
C220     C      0.331910000000     0.979990000000     0.706540000000     0.0100447  
C221     C      0.332340000000     0.974810000000     0.160220000000    -0.0228628  
C222     C      0.331940000000     0.029650000000     0.334390000000    -0.0232795  
C223     C      0.334950000000     0.974870000000     0.333580000000    -0.022748   
C224     C      0.333640000000     0.986860000000     0.287100000000     0.0113158  
C225     C      0.331940000000     0.018090000000     0.287310000000     0.0162072  
C226     C      0.330430000000     0.034610000000     0.246960000000    -0.067116   
C227     C      0.329440000000     0.029590000000     0.159520000000    -0.0231644  
C228     C      0.333900000000     0.970380000000     0.246890000000    -0.0649929  
C229     C      0.330720000000     0.018060000000     0.206580000000     0.0161635  
C230     C      0.332380000000     0.986830000000     0.206720000000     0.0113765  
C231     C      0.221670000000     0.021280000000     0.972880000000    -0.022691   
C232     C      0.105550000000     0.981960000000     0.028910000000    -0.0220382  
C233     C      0.105570000000     0.016140000000     0.964790000000    -0.0228272  
C234     C      0.136770000000     0.009620000000     0.979640000000     0.0171556  
C235     C      0.136760000000     0.988490000000     0.014100000000     0.0110379  
C236     C      0.163610000000     0.975800000000     0.030070000000    -0.064313   
C237     C      0.221660000000     0.976830000000     0.020960000000    -0.0220169  
C238     C      0.163620000000     0.022310000000     0.963700000000    -0.0678335  
C239     C      0.190460000000     0.987050000000     0.011880000000     0.0111185  
C240     C      0.190470000000     0.011060000000     0.981930000000     0.0171364  
Cu1      Cu     0.330290000000     0.971140000000     0.998680000000     0.842137   
Cu2      Cu     0.330300000000     0.026940000000     0.995160000000     0.84506    
Cu3      Cu     0.333990000000     0.026930000000     0.498720000000     0.845585   
Cu4      Cu     0.333990000000     0.971140000000     0.495120000000     0.84258    
Cu5      Cu     0.022100000000     0.664960000000     0.016640000000     0.848344   
Cu6      Cu     0.966440000000     0.665900000000     0.018010000000     0.841566   
Cu7      Cu     0.021800000000     0.665150000000     0.516770000000     0.849766   
Cu8      Cu     0.966170000000     0.666770000000     0.518050000000     0.836532   
Cu9      Cu     0.664070000000     0.026960000000     0.997390000000     0.845579   
Cu10     Cu     0.664070000000     0.971100000000     0.996030000000     0.842485   
Cu11     Cu     0.667640000000     0.026970000000     0.497310000000     0.846114   
Cu12     Cu     0.667650000000     0.971100000000     0.496120000000     0.843009   
Cu13     Cu     0.997160000000     0.000650000000     0.037940000000     0.838757   
Cu14     Cu     0.997180000000     0.997430000000     0.955660000000     0.829238   
Cu15     Cu     0.000880000000     0.003940000000     0.537670000000     0.84828    
Cu16     Cu     0.000900000000     0.994180000000     0.455780000000     0.841884   
Cu17     Cu     0.022100000000     0.333110000000     0.976650000000     0.848288   
Cu18     Cu     0.966450000000     0.332170000000     0.975280000000     0.841546   
Cu19     Cu     0.966180000000     0.331340000000     0.475230000000     0.836634   
Cu20     Cu     0.021810000000     0.332970000000     0.476510000000     0.849774   
H1       H      0.951770000000     0.347640000000     0.632030000000     0.0434544  
H2       H      0.034540000000     0.350190000000     0.631540000000     0.0447015  
H3       H      0.050610000000     0.331190000000     0.725280000000     0.0446509  
H4       H      0.937840000000     0.329070000000     0.726500000000     0.0437342  
H5       H      0.953380000000     0.352050000000     0.818870000000     0.0439951  
H6       H      0.036030000000     0.311870000000     0.820150000000     0.0442725  
H7       H      0.953470000000     0.306900000000     0.632980000000     0.0434402  
H8       H      0.035420000000     0.309430000000     0.632160000000     0.0434442  
H9       H      0.035670000000     0.352640000000     0.818420000000     0.0437796  
H10      H      0.953520000000     0.311300000000     0.820910000000     0.0434321  
H11      H      0.035090000000     0.356590000000     0.319180000000     0.0437211  
H12      H      0.953040000000     0.355530000000     0.319440000000     0.0437887  
H13      H      0.937650000000     0.333140000000     0.226360000000     0.0437584  
H14      H      0.050410000000     0.335610000000     0.225570000000     0.0447265  
H15      H      0.034370000000     0.354610000000     0.131480000000     0.0444965  
H16      H      0.953300000000     0.311290000000     0.133190000000     0.0435169  
H17      H      0.035920000000     0.315820000000     0.319750000000     0.0444084  
H18      H      0.953180000000     0.314750000000     0.320240000000     0.0435963  
H19      H      0.951880000000     0.352040000000     0.131700000000     0.043326   
H20      H      0.035540000000     0.313850000000     0.132730000000     0.0436778  
H21      H      0.043400000000     0.229360000000     0.475860000000     0.0461109  
H22      H      0.973320000000     0.227450000000     0.411710000000     0.0408667  
H23      H      0.957340000000     0.162430000000     0.416770000000     0.0440334  
H24      H      0.044040000000     0.167540000000     0.524570000000     0.0450657  
H25      H      0.045800000000     0.103660000000     0.498810000000     0.0411942  
H26      H      0.960290000000     0.099660000000     0.447080000000     0.0405303  
H27      H      0.022850000000     0.229130000000     0.528410000000     0.0421091  
H28      H      0.952470000000     0.224700000000     0.463810000000     0.0451533  
H29      H      0.991390000000     0.100170000000     0.407840000000     0.0448396  
H30      H      0.015730000000     0.105940000000     0.539590000000     0.0476877  
H31      H      0.041520000000     0.228190000000     0.985170000000     0.045755   
H32      H      0.972300000000     0.226750000000     0.918650000000     0.040807   
H33      H      0.954000000000     0.163380000000     0.927250000000     0.0440216  
H34      H      0.039100000000     0.167900000000     0.038010000000     0.0452611  
H35      H      0.039370000000     0.103660000000     0.014990000000     0.0417205  
H36      H      0.954550000000     0.101170000000     0.960490000000     0.0412123  
H37      H      0.020140000000     0.230980000000     0.036820000000     0.041951   
H38      H      0.950660000000     0.226960000000     0.970220000000     0.045473   
H39      H      0.985720000000     0.101170000000     0.921380000000     0.0455052  
H40      H      0.008220000000     0.106230000000     0.053930000000     0.0465424  
H41      H      0.772420000000     0.044800000000     0.501610000000     0.0458129  
H42      H      0.771210000000     0.973560000000     0.438930000000     0.041092   
H43      H      0.834310000000     0.954710000000     0.444140000000     0.043895   
H44      H      0.834300000000     0.043380000000     0.549220000000     0.0450658  
H45      H      0.897390000000     0.042500000000     0.520620000000     0.0414604  
H46      H      0.897400000000     0.955600000000     0.472750000000     0.0409467  
H47      H      0.771210000000     0.024520000000     0.554430000000     0.0419199  
H48      H      0.772430000000     0.953280000000     0.491750000000     0.0452636  
H49      H      0.896180000000     0.985440000000     0.431260000000     0.0451694  
H50      H      0.896170000000     0.012660000000     0.562110000000     0.0460445  
H51      H      0.687320000000     0.040210000000     0.653240000000     0.0437008  
H52      H      0.688040000000     0.957660000000     0.653910000000     0.043518   
H53      H      0.665910000000     0.942510000000     0.747200000000     0.0436992  
H54      H      0.666120000000     0.055710000000     0.746230000000     0.0447155  
H55      H      0.685430000000     0.040610000000     0.840770000000     0.0442136  
H56      H      0.643800000000     0.958450000000     0.839900000000     0.043919   
H57      H      0.646690000000     0.039950000000     0.652290000000     0.0445825  
H58      H      0.647410000000     0.957120000000     0.652670000000     0.043329   
H59      H      0.684410000000     0.957820000000     0.841350000000     0.0433632  
H60      H      0.644800000000     0.041040000000     0.839600000000     0.0437502  
H61      H      0.684420000000     0.040250000000     0.152090000000     0.0438458  
H62      H      0.685430000000     0.957460000000     0.152670000000     0.0436398  
H63      H      0.666100000000     0.942360000000     0.247200000000     0.0436863  
H64      H      0.665890000000     0.055560000000     0.246220000000     0.0446973  
H65      H      0.687990000000     0.040420000000     0.339530000000     0.0441509  
H66      H      0.646650000000     0.958120000000     0.341130000000     0.0440015  
H67      H      0.643800000000     0.039620000000     0.153510000000     0.0444511  
H68      H      0.644800000000     0.957020000000     0.153820000000     0.043188   
H69      H      0.687280000000     0.957850000000     0.340190000000     0.0431555  
H70      H      0.647370000000     0.040940000000     0.340750000000     0.0439009  
H71      H      0.892630000000     0.986230000000     0.930970000000     0.0452624  
H72      H      0.893850000000     0.042180000000     0.021880000000     0.0416109  
H73      H      0.830740000000     0.042790000000     0.050340000000     0.045065   
H74      H      0.830750000000     0.955280000000     0.943130000000     0.0439508  
H75      H      0.767640000000     0.974090000000     0.938430000000     0.0410453  
H76      H      0.767630000000     0.023980000000     0.054990000000     0.0418298  
H77      H      0.893860000000     0.955880000000     0.971620000000     0.0410812  
H78      H      0.892610000000     0.011830000000     0.062540000000     0.0461429  
H79      H      0.768870000000     0.044740000000     0.002600000000     0.0457996  
H80      H      0.768870000000     0.953330000000     0.990830000000     0.0452972  
H81      H      0.033300000000     0.434680000000     0.515000000000     0.0444225  
H82      H      0.950520000000     0.434130000000     0.515980000000     0.0437681  
H83      H      0.935120000000     0.499060000000     0.496640000000     0.0437183  
H84      H      0.047900000000     0.499060000000     0.496640000000     0.0447918  
H85      H      0.032530000000     0.558720000000     0.538750000000     0.0442747  
H86      H      0.950520000000     0.563990000000     0.477310000000     0.0437746  
H87      H      0.032540000000     0.439390000000     0.454530000000     0.0442818  
H88      H      0.950530000000     0.438710000000     0.455480000000     0.043167   
H89      H      0.950530000000     0.559400000000     0.537810000000     0.043164   
H90      H      0.033300000000     0.563440000000     0.478280000000     0.0444111  
H91      H      0.015780000000     0.892180000000     0.453860000000     0.047602   
H92      H      0.960300000000     0.898440000000     0.546320000000     0.0402565  
H93      H      0.957320000000     0.835680000000     0.576580000000     0.0438632  
H94      H      0.044060000000     0.830590000000     0.468850000000     0.0450445  
H95      H      0.022850000000     0.769000000000     0.464920000000     0.0421013  
H96      H      0.973290000000     0.770640000000     0.581580000000     0.0408668  
H97      H      0.045840000000     0.894470000000     0.494680000000     0.0409861  
H98      H      0.991380000000     0.897950000000     0.585590000000     0.0444621  
H99      H      0.952460000000     0.773430000000     0.529470000000     0.0451591  
H100     H      0.043390000000     0.768750000000     0.517480000000     0.0460811  
H101     H      0.952030000000     0.440000000000     0.951380000000     0.0430097  
H102     H      0.033530000000     0.440460000000     0.950400000000     0.0439449  
H103     H      0.049260000000     0.499040000000     0.996590000000     0.0447814  
H104     H      0.936470000000     0.499040000000     0.996590000000     0.0437509  
H105     H      0.951520000000     0.564090000000     0.981590000000     0.0441504  
H106     H      0.033520000000     0.557610000000     0.042800000000     0.0439407  
H107     H      0.951520000000     0.434000000000     0.011610000000     0.0442468  
H108     H      0.034810000000     0.434320000000     0.010580000000     0.0446831  
H109     H      0.034810000000     0.563760000000     0.982620000000     0.0445795  
H110     H      0.952030000000     0.558060000000     0.041820000000     0.0429943  
H111     H      0.953170000000     0.683370000000     0.673050000000     0.0435847  
H112     H      0.035910000000     0.682310000000     0.673540000000     0.0443879  
H113     H      0.050400000000     0.662510000000     0.767720000000     0.0447168  
H114     H      0.937630000000     0.664980000000     0.766930000000     0.0436987  
H115     H      0.953290000000     0.686830000000     0.860100000000     0.0434396  
H116     H      0.034360000000     0.643520000000     0.861800000000     0.0444993  
H117     H      0.953030000000     0.642600000000     0.673850000000     0.0437956  
H118     H      0.035080000000     0.641540000000     0.674110000000     0.0437225  
H119     H      0.035530000000     0.684270000000     0.860570000000     0.0436559  
H120     H      0.951870000000     0.646080000000     0.861590000000     0.043274   
H121     H      0.951760000000     0.650460000000     0.361280000000     0.0434536  
H122     H      0.034530000000     0.647920000000     0.361760000000     0.0447102  
H123     H      0.050600000000     0.666880000000     0.268010000000     0.0446557  
H124     H      0.937830000000     0.668990000000     0.266790000000     0.0437231  
H125     H      0.953380000000     0.645980000000     0.174430000000     0.043978   
H126     H      0.036030000000     0.686160000000     0.173130000000     0.04427    
H127     H      0.953460000000     0.691200000000     0.360290000000     0.0434336  
H128     H      0.035410000000     0.688680000000     0.361110000000     0.0434333  
H129     H      0.035660000000     0.645400000000     0.174880000000     0.0437898  
H130     H      0.953510000000     0.686730000000     0.172370000000     0.043394   
H131     H      0.950660000000     0.771120000000     0.023160000000     0.0454531  
H132     H      0.020140000000     0.767130000000     0.956590000000     0.0419531  
H133     H      0.039130000000     0.830200000000     0.955510000000     0.0451529  
H134     H      0.954000000000     0.834670000000     0.066220000000     0.0439332  
H135     H      0.954580000000     0.896900000000     0.033070000000     0.0409857  
H136     H      0.039410000000     0.894420000000     0.978620000000     0.0414778  
H137     H      0.972280000000     0.771290000000     0.074740000000     0.0407711  
H138     H      0.041510000000     0.769870000000     0.008250000000     0.0458673  
H139     H      0.008270000000     0.891870000000     0.939650000000     0.0463452  
H140     H      0.985730000000     0.896880000000     0.072200000000     0.0452105  
H141     H      0.438260000000     0.040020000000     0.465360000000     0.0441814  
H142     H      0.438280000000     0.957330000000     0.467590000000     0.0435449  
H143     H      0.500810000000     0.942450000000     0.498530000000     0.0437465  
H144     H      0.500810000000     0.055620000000     0.495170000000     0.0447801  
H145     H      0.563320000000     0.039930000000     0.465000000000     0.0442059  
H146     H      0.563350000000     0.958140000000     0.528550000000     0.0436293  
H147     H      0.438300000000     0.040740000000     0.526250000000     0.0440994  
H148     H      0.438280000000     0.958060000000     0.528480000000     0.0436383  
H149     H      0.563340000000     0.957250000000     0.467670000000     0.0435205  
H150     H      0.563370000000     0.040820000000     0.525880000000     0.0440914  
H151     H      0.104300000000     0.958280000000     0.463950000000     0.0403125  
H152     H      0.105610000000     0.006400000000     0.564370000000     0.046454   
H153     H      0.167410000000     0.038580000000     0.557330000000     0.0449611  
H154     H      0.167440000000     0.959530000000     0.436330000000     0.0438213  
H155     H      0.229220000000     0.953970000000     0.484270000000     0.045438   
H156     H      0.229230000000     0.044110000000     0.509500000000     0.0459322  
H157     H      0.105650000000     0.991740000000     0.429170000000     0.0455587  
H158     H      0.104290000000     0.039860000000     0.529580000000     0.0408192  
H159     H      0.230540000000     0.020000000000     0.558590000000     0.0415907  
H160     H      0.230580000000     0.978080000000     0.435180000000     0.040761   
H161     H      0.559730000000     0.957420000000     0.967080000000     0.0435339  
H162     H      0.559690000000     0.040110000000     0.965520000000     0.0442656  
H163     H      0.497180000000     0.055630000000     0.996120000000     0.0447506  
H164     H      0.497180000000     0.942440000000     0.997520000000     0.0437201  
H165     H      0.434630000000     0.957610000000     0.966690000000     0.0437403  
H166     H      0.434670000000     0.040450000000     0.027090000000     0.044352   
H167     H      0.559720000000     0.957950000000     0.027970000000     0.0437461  
H168     H      0.559760000000     0.040640000000     0.026410000000     0.0441399  
H169     H      0.434600000000     0.040310000000     0.966200000000     0.0440528  
H170     H      0.434620000000     0.957760000000     0.027580000000     0.0435104  
H171     H      0.348840000000     0.953520000000     0.841800000000     0.043405   
H172     H      0.353210000000     0.036210000000     0.840700000000     0.0445608  
H173     H      0.335190000000     0.052100000000     0.746970000000     0.0447134  
H174     H      0.329080000000     0.939080000000     0.746870000000     0.0437623  
H175     H      0.351560000000     0.953510000000     0.653180000000     0.0432672  
H176     H      0.315550000000     0.038340000000     0.653240000000     0.0440516  
H177     H      0.308280000000     0.955780000000     0.840560000000     0.043324   
H178     H      0.312640000000     0.038240000000     0.839440000000     0.0439467  
H179     H      0.356110000000     0.035950000000     0.654450000000     0.0444721  
H180     H      0.311000000000     0.955650000000     0.651980000000     0.0434869  
H181     H      0.356130000000     0.962120000000     0.339400000000     0.0439378  
H182     H      0.351590000000     0.044560000000     0.340680000000     0.0439141  
H183     H      0.329110000000     0.059010000000     0.246990000000     0.0448155  
H184     H      0.335210000000     0.945980000000     0.246870000000     0.0436946  
H185     H      0.353230000000     0.961880000000     0.153140000000     0.044108   
H186     H      0.308310000000     0.042310000000     0.153290000000     0.0440465  
H187     H      0.315570000000     0.959730000000     0.340610000000     0.0436255  
H188     H      0.311020000000     0.042430000000     0.341870000000     0.0442203  
H189     H      0.348870000000     0.044560000000     0.152050000000     0.0440288  
H190     H      0.312660000000     0.959840000000     0.154400000000     0.0435516  
H191     H      0.101780000000     0.008170000000     0.929740000000     0.0465341  
H192     H      0.100470000000     0.957420000000     0.027210000000     0.0411357  
H193     H      0.163600000000     0.958130000000     0.055280000000     0.043985   
H194     H      0.163630000000     0.039970000000     0.938500000000     0.0451579  
H195     H      0.226770000000     0.021260000000     0.936210000000     0.041767   
H196     H      0.226740000000     0.976850000000     0.057640000000     0.0409293  
H197     H      0.100480000000     0.040670000000     0.966490000000     0.0416838  
H198     H      0.101750000000     0.989920000000     0.063970000000     0.0455519  
H199     H      0.225460000000     0.953740000000     0.007490000000     0.0454378  
H200     H      0.225470000000     0.044370000000     0.986360000000     0.0459279  
N1       N      0.994730000000     0.332310000000     0.840570000000    -0.167103   
N2       N      0.993710000000     0.328700000000     0.611180000000    -0.167087   
N3       N      0.993730000000     0.332740000000     0.111310000000    -0.167244   
N4       N      0.994370000000     0.335540000000     0.340630000000    -0.167189   
N5       N      0.003160000000     0.088360000000     0.475160000000    -0.165424   
N6       N      0.997190000000     0.241660000000     0.470510000000    -0.166862   
N7       N      0.997030000000     0.089120000000     0.988870000000    -0.166966   
N8       N      0.995970000000     0.242190000000     0.976860000000    -0.167451   
N9       N      0.910730000000     0.999050000000     0.496690000000    -0.167395   
N10      N      0.757870000000     0.999040000000     0.496680000000    -0.167202   
N11      N      0.664390000000     0.999540000000     0.861370000000    -0.167191   
N12      N      0.667500000000     0.998670000000     0.632060000000    -0.167228   
N13      N      0.667460000000     0.999400000000     0.361370000000    -0.167225   
N14      N      0.664400000000     0.998520000000     0.132060000000    -0.167237   
N15      N      0.754300000000     0.999040000000     0.996710000000    -0.167199   
N16      N      0.907180000000     0.999030000000     0.996760000000    -0.16686    
N17      N      0.991820000000     0.575410000000     0.509960000000    -0.166758   
N18      N      0.991830000000     0.422710000000     0.483330000000    -0.166798   
N19      N      0.997180000000     0.756460000000     0.522780000000    -0.16685    
N20      N      0.003180000000     0.909760000000     0.518280000000    -0.16563    
N21      N      0.993030000000     0.574890000000     0.014230000000    -0.167259   
N22      N      0.993030000000     0.423190000000     0.978980000000    -0.167113   
N23      N      0.993720000000     0.665380000000     0.881980000000    -0.167276   
N24      N      0.994360000000     0.662590000000     0.652660000000    -0.167184   
N25      N      0.994720000000     0.665720000000     0.152720000000    -0.167071   
N26      N      0.993700000000     0.669410000000     0.382110000000    -0.167097   
N27      N      0.997060000000     0.908960000000     0.004720000000    -0.16709    
N28      N      0.995960000000     0.755890000000     0.016520000000    -0.167284   
N29      N      0.577330000000     0.999030000000     0.496760000000    -0.167108   
N30      N      0.424290000000     0.999040000000     0.496930000000    -0.167191   
N31      N      0.243820000000     0.999040000000     0.496900000000    -0.167252   
N32      N      0.091040000000     0.999070000000     0.496760000000    -0.167055   
N33      N      0.420630000000     0.999040000000     0.996900000000    -0.167041   
N34      N      0.573720000000     0.999030000000     0.996730000000    -0.166964   
N35      N      0.333740000000     0.996020000000     0.632230000000    -0.167094   
N36      N      0.330560000000     0.996090000000     0.861610000000    -0.167074   
N37      N      0.330580000000     0.002000000000     0.132240000000    -0.165866   
N38      N      0.333760000000     0.002060000000     0.361620000000    -0.165907   
N39      N      0.240060000000     0.999050000000     0.996930000000    -0.167041   
N40      N      0.087170000000     0.999050000000     0.996840000000    -0.166665   
O1       O      0.329010000000     0.972170000000     0.929950000000    -0.395411   
O2       O      0.331630000000     0.975590000000     0.066490000000    -0.400142   
O3       O      0.284720000000     0.974040000000     0.001710000000    -0.396662   
O4       O      0.375880000000     0.973820000000     0.996610000000    -0.396751   
O5       O      0.375890000000     0.024250000000     0.997220000000    -0.395801   
O6       O      0.284720000000     0.024060000000     0.992150000000    -0.395517   
O7       O      0.329030000000     0.025920000000     0.063900000000    -0.396029   
O8       O      0.331620000000     0.022500000000     0.927360000000    -0.397333   
O9       O      0.332570000000     0.025950000000     0.430000000000    -0.39614    
O10      O      0.335380000000     0.022440000000     0.566520000000    -0.397368   
O11      O      0.379560000000     0.024250000000     0.496450000000    -0.396056   
O12      O      0.288440000000     0.024030000000     0.501920000000    -0.396069   
O13      O      0.288440000000     0.974050000000     0.491910000000    -0.397188   
O14      O      0.379560000000     0.973820000000     0.497410000000    -0.397033   
O15      O      0.332560000000     0.972130000000     0.563850000000    -0.395468   
O16      O      0.335380000000     0.975630000000     0.427330000000    -0.400149   
O17      O      0.019680000000     0.665950000000     0.085300000000    -0.394905   
O18      O      0.019030000000     0.664080000000     0.948640000000    -0.397544   
O19      O      0.020090000000     0.710650000000     0.013970000000    -0.397263   
O20      O      0.018640000000     0.619360000000     0.017860000000    -0.397619   
O21      O      0.968410000000     0.620090000000     0.015950000000    -0.396766   
O22      O      0.970050000000     0.711610000000     0.020920000000    -0.396742   
O23      O      0.968870000000     0.667000000000     0.949400000000    -0.396211   
O24      O      0.969450000000     0.664720000000     0.086020000000    -0.398034   
O25      O      0.019320000000     0.664220000000     0.585360000000    -0.395624   
O26      O      0.018850000000     0.666260000000     0.448760000000    -0.397564   
O27      O      0.020370000000     0.710870000000     0.517180000000    -0.397449   
O28      O      0.017810000000     0.619590000000     0.515160000000    -0.397248   
O29      O      0.967590000000     0.620900000000     0.513330000000    -0.39448    
O30      O      0.970350000000     0.712470000000     0.523840000000    -0.394002   
O31      O      0.968720000000     0.669660000000     0.449520000000    -0.395191   
O32      O      0.969080000000     0.663700000000     0.585950000000    -0.397506   
O33      O      0.663080000000     0.023910000000     0.065390000000    -0.397199   
O34      O      0.665100000000     0.024540000000     0.928780000000    -0.395127   
O35      O      0.618470000000     0.024240000000     0.995790000000    -0.395748   
O36      O      0.709640000000     0.024140000000     0.000120000000    -0.39584    
O37      O      0.709650000000     0.973920000000     0.993300000000    -0.396964   
O38      O      0.618470000000     0.973820000000     0.997650000000    -0.396813   
O39      O      0.663070000000     0.974150000000     0.928030000000    -0.398196   
O40      O      0.665110000000     0.973530000000     0.064640000000    -0.396159   
O41      O      0.666650000000     0.024000000000     0.565320000000    -0.397169   
O42      O      0.668600000000     0.024460000000     0.428710000000    -0.395257   
O43      O      0.622070000000     0.024240000000     0.495740000000    -0.396135   
O44      O      0.713210000000     0.024160000000     0.499980000000    -0.395994   
O45      O      0.713220000000     0.973920000000     0.493420000000    -0.397122   
O46      O      0.622070000000     0.973820000000     0.497730000000    -0.397103   
O47      O      0.666630000000     0.974070000000     0.428100000000    -0.398229   
O48      O      0.668620000000     0.973610000000     0.564710000000    -0.396334   
O49      O      0.002830000000     0.045810000000     0.029360000000    -0.392561   
O50      O      0.991470000000     0.955150000000     0.037380000000    -0.396006   
O51      O      0.042460000000     0.994770000000     0.033890000000    -0.393896   
O52      O      0.951880000000     0.006130000000     0.032870000000    -0.393069   
O53      O      0.951900000000     0.991930000000     0.960690000000    -0.393905   
O54      O      0.042470000000     0.003320000000     0.959750000000    -0.390397   
O55      O      0.002860000000     0.952270000000     0.964240000000    -0.392308   
O56      O      0.991470000000     0.042920000000     0.956210000000    -0.393465   
O57      O      0.004600000000     0.048150000000     0.522440000000    -0.399383   
O58      O      0.997520000000     0.958000000000     0.544550000000    -0.396838   
O59      O      0.046410000000     0.001700000000     0.534220000000    -0.395173   
O60      O      0.955400000000     0.006860000000     0.532480000000    -0.396745   
O61      O      0.955410000000     0.991240000000     0.460930000000    -0.397768   
O62      O      0.046430000000     0.996430000000     0.459260000000    -0.396326   
O63      O      0.004620000000     0.949970000000     0.471000000000    -0.399016   
O64      O      0.997530000000     0.040110000000     0.448890000000    -0.394539   
O65      O      0.019040000000     0.334020000000     0.044650000000    -0.397447   
O66      O      0.019680000000     0.332100000000     0.907990000000    -0.395038   
O67      O      0.018650000000     0.378710000000     0.975390000000    -0.397448   
O68      O      0.020090000000     0.287430000000     0.979360000000    -0.397429   
O69      O      0.970060000000     0.286470000000     0.972410000000    -0.396818   
O70      O      0.968410000000     0.377980000000     0.977300000000    -0.396715   
O71      O      0.969460000000     0.333320000000     0.907270000000    -0.398086   
O72      O      0.968880000000     0.331090000000     0.043890000000    -0.396131   
O73      O      0.969090000000     0.334420000000     0.407340000000    -0.397573   
O74      O      0.968730000000     0.328460000000     0.543760000000    -0.395155   
O75      O      0.967600000000     0.377220000000     0.479960000000    -0.394449   
O76      O      0.970360000000     0.285650000000     0.469440000000    -0.394097   
O77      O      0.020380000000     0.287250000000     0.476110000000    -0.39746    
O78      O      0.017810000000     0.378530000000     0.478130000000    -0.397387   
O79      O      0.018860000000     0.331860000000     0.544530000000    -0.397469   
O80      O      0.019330000000     0.333900000000     0.407930000000    -0.395688   


