data_structure

_audit_creation_method RASPA-1.0
_audit_creation_date 2023-5-23
_audit_author_name 'Poobodin Mano'

_cell_length_a    59.2458
_cell_length_b    59.2606
_cell_length_c    29.6649
_cell_angle_alpha 90
_cell_angle_beta  90
_cell_angle_gamma 90
_cell_volume      104152

_symmetry_cell_setting          triclinic
_symmetry_space_group_name_Hall 'P 1'
_symmetry_space_group_name_H-M  'P 1'
_symmetry_Int_Tables_number     1

_symmetry_equiv_pos_as_xyz 'x,y,z'

loop_
_atom_site_label
_atom_site_type_symbol
_atom_site_fract_x
_atom_site_fract_y
_atom_site_fract_z
_atom_site_charge
C1       C      0.371960000000     0.827700000000     0.994740000000     0.404343   
C2       C      0.370830000000     0.917290000000     0.999100000000     0.403086   
C3       C      0.372960000000     0.873550000000     0.907460000000     0.403139   
C4       C      0.369780000000     0.871380000000     0.086480000000     0.402962   
C5       C      0.371810000000     0.826850000000     0.499440000000     0.404025   
C6       C      0.371270000000     0.916440000000     0.494830000000     0.403568   
C7       C      0.369910000000     0.870520000000     0.407520000000     0.402813   
C8       C      0.373100000000     0.872780000000     0.586540000000     0.402962   
C9       C      0.370480000000     0.077930000000     0.001560000000     0.403474   
C10      C      0.371220000000     0.167550000000     0.998810000000     0.403906   
C11      C      0.371040000000     0.122030000000     0.910650000000     0.403624   
C12      C      0.370580000000     0.123500000000     0.089770000000     0.403181   
C13      C      0.370920000000     0.077040000000     0.497550000000     0.403847   
C14      C      0.370580000000     0.166610000000     0.503110000000     0.404603   
C15      C      0.371130000000     0.123190000000     0.410730000000     0.403198   
C16      C      0.370430000000     0.120570000000     0.589790000000     0.403513   
C17      C      0.918370000000     0.624420000000     0.993990000000     0.403868   
C18      C      0.828810000000     0.624340000000     0.000440000000     0.404261   
C19      C      0.875100000000     0.624730000000     0.086620000000     0.403439   
C20      C      0.871960000000     0.624000000000     0.907560000000     0.402916   
C21      C      0.827500000000     0.623920000000     0.493640000000     0.40434    
C22      C      0.917070000000     0.624780000000     0.500200000000     0.403399   
C23      C      0.873870000000     0.624180000000     0.407510000000     0.403289   
C24      C      0.870680000000     0.624590000000     0.586570000000     0.402998   
C25      C      0.078990000000     0.624310000000     0.995900000000     0.403623   
C26      C      0.168550000000     0.623690000000     0.002300000000     0.404224   
C27      C      0.125280000000     0.625620000000     0.909510000000     0.403189   
C28      C      0.122220000000     0.622470000000     0.088500000000     0.40303    
C29      C      0.077710000000     0.624630000000     0.501350000000     0.403722   
C30      C      0.167290000000     0.623660000000     0.496400000000     0.404167   
C31      C      0.121290000000     0.622580000000     0.409440000000     0.403278   
C32      C      0.123780000000     0.625760000000     0.588460000000     0.403018   
C33      C      0.621590000000     0.077100000000     0.992730000000     0.403083   
C34      C      0.622230000000     0.166680000000     0.984310000000     0.403837   
C35      C      0.622230000000     0.120060000000     0.899060000000     0.403226   
C36      C      0.621580000000     0.123800000000     0.078070000000     0.403197   
C37      C      0.622340000000     0.077320000000     0.489460000000     0.402629   
C38      C      0.622130000000     0.167030000000     0.488210000000     0.403333   
C39      C      0.622460000000     0.122110000000     0.399040000000     0.403143   
C40      C      0.621950000000     0.122310000000     0.578210000000     0.403416   
C41      C      0.621760000000     0.916710000000     0.012770000000     0.402981   
C42      C      0.622650000000     0.827050000000     0.014590000000     0.403961   
C43      C      0.623810000000     0.872220000000     0.103340000000     0.403226   
C44      C      0.620530000000     0.871520000000     0.924300000000     0.403182   
C45      C      0.622360000000     0.916970000000     0.511770000000     0.402539   
C46      C      0.621680000000     0.827290000000     0.515360000000     0.403441   
C47      C      0.620440000000     0.872900000000     0.603330000000     0.403082   
C48      C      0.623670000000     0.871330000000     0.424300000000     0.403117   
C49      C      0.328710000000     0.373670000000     0.014700000000     0.402874   
C50      C      0.418140000000     0.371730000000     0.002390000000     0.402099   
C51      C      0.372480000000     0.327910000000     0.004750000000     0.403834   
C52      C      0.374440000000     0.417360000000     0.012070000000     0.403006   
C53      C      0.326900000000     0.372040000000     0.505940000000     0.403443   
C54      C      0.416470000000     0.371010000000     0.495070000000     0.402784   
C55      C      0.371010000000     0.326880000000     0.504510000000     0.404303   
C56      C      0.372110000000     0.416420000000     0.496300000000     0.403527   
C57      C      0.328870000000     0.622310000000     0.006960000000     0.403991   
C58      C      0.418320000000     0.622820000000     0.999180000000     0.403193   
C59      C      0.373420000000     0.667360000000     0.997980000000     0.403607   
C60      C      0.373940000000     0.577960000000     0.008150000000     0.40296    
C61      C      0.327640000000     0.621790000000     0.494350000000     0.404243   
C62      C      0.417120000000     0.621680000000     0.500560000000     0.403206   
C63      C      0.372550000000     0.666510000000     0.500930000000     0.403913   
C64      C      0.372340000000     0.577040000000     0.494290000000     0.403073   
C65      C      0.668290000000     0.371520000000     0.972390000000     0.403458   
C66      C      0.578700000000     0.371680000000     0.983390000000     0.402658   
C67      C      0.623670000000     0.326940000000     0.974540000000     0.403574   
C68      C      0.623640000000     0.416580000000     0.981230000000     0.40273    
C69      C      0.622820000000     0.327470000000     0.478900000000     0.403069   
C70      C      0.620860000000     0.417050000000     0.474220000000     0.402128   
C71      C      0.666620000000     0.373340000000     0.471620000000     0.40301    
C72      C      0.577110000000     0.371260000000     0.480870000000     0.402155   
C73      C      0.668530000000     0.622510000000     0.002990000000     0.404686   
C74      C      0.578940000000     0.621680000000     0.997070000000     0.403729   
C75      C      0.623480000000     0.666710000000     0.005770000000     0.403761   
C76      C      0.624190000000     0.577190000000     0.994420000000     0.402868   
C77      C      0.667180000000     0.622070000000     0.489310000000     0.403709   
C78      C      0.577740000000     0.622420000000     0.497750000000     0.403174   
C79      C      0.622580000000     0.666970000000     0.501100000000     0.403106   
C80      C      0.622130000000     0.577680000000     0.485970000000     0.402191   
C81      C      0.168200000000     0.373050000000     0.015530000000     0.40316    
C82      C      0.078510000000     0.372430000000     0.009300000000     0.402334   
C83      C      0.124650000000     0.371090000000     0.923070000000     0.402945   
C84      C      0.122010000000     0.374250000000     0.102090000000     0.402935   
C85      C      0.076780000000     0.372370000000     0.510440000000     0.402693   
C86      C      0.166470000000     0.371870000000     0.514250000000     0.403503   
C87      C      0.122410000000     0.373800000000     0.423100000000     0.402809   
C88      C      0.120930000000     0.370560000000     0.602150000000     0.402948   
C89      C      0.828750000000     0.371810000000     0.972800000000     0.403428   
C90      C      0.918420000000     0.372240000000     0.979220000000     0.402468   
C91      C      0.872220000000     0.373710000000     0.065370000000     0.402741   
C92      C      0.874870000000     0.370460000000     0.886350000000     0.402855   
C93      C      0.827110000000     0.372860000000     0.473220000000     0.403418   
C94      C      0.916790000000     0.372470000000     0.479080000000     0.402707   
C95      C      0.870790000000     0.371010000000     0.565470000000     0.402708   
C96      C      0.873150000000     0.374190000000     0.386420000000     0.402654   
C97      C      0.873640000000     0.349340000000     0.813200000000    -0.022368   
C98      C      0.872070000000     0.390690000000     0.639360000000    -0.0225767  
C99      C      0.869890000000     0.349730000000     0.638440000000    -0.0225449  
C100     C      0.871310000000     0.358260000000     0.685520000000     0.0131454  
C101     C      0.872570000000     0.381620000000     0.685790000000     0.0142416  
C102     C      0.874210000000     0.393830000000     0.726010000000    -0.0666455  
C103     C      0.875930000000     0.390280000000     0.812630000000    -0.0224715  
C104     C      0.871580000000     0.345810000000     0.725800000000    -0.0653991  
C105     C      0.874500000000     0.381420000000     0.766120000000     0.0142256  
C106     C      0.873200000000     0.358070000000     0.766190000000     0.0131043  
C107     C      0.872300000000     0.395310000000     0.313240000000    -0.0225147  
C108     C      0.872970000000     0.354030000000     0.139290000000    -0.022623   
C109     C      0.870750000000     0.394990000000     0.138330000000    -0.022546   
C110     C      0.871580000000     0.386440000000     0.185460000000     0.01315    
C111     C      0.872840000000     0.363080000000     0.185760000000     0.0142464  
C112     C      0.873920000000     0.350850000000     0.226030000000    -0.0666534  
C113     C      0.874530000000     0.354360000000     0.312720000000    -0.0225411  
C114     C      0.871320000000     0.398870000000     0.225760000000    -0.0654096  
C115     C      0.873670000000     0.363240000000     0.266160000000     0.0142489  
C116     C      0.872400000000     0.386590000000     0.266210000000     0.013139   
C117     C      0.040110000000     0.392950000000     0.505030000000    -0.0226172  
C118     C      0.953440000000     0.351910000000     0.485080000000    -0.0225678  
C119     C      0.953510000000     0.392920000000     0.483980000000    -0.0225374  
C120     C      0.976770000000     0.384110000000     0.489760000000     0.0137791  
C121     C      0.976730000000     0.360730000000     0.490390000000     0.0137824  
C122     C      0.996730000000     0.348390000000     0.495790000000    -0.0659136  
C123     C      0.040030000000     0.351940000000     0.506150000000    -0.0225913  
C124     C      0.996800000000     0.396480000000     0.494480000000    -0.0659796  
C125     C      0.016770000000     0.360750000000     0.500510000000     0.0137655  
C126     C      0.016810000000     0.384130000000     0.499880000000     0.0137897  
C127     C      0.123570000000     0.390780000000     0.849180000000    -0.0226674  
C128     C      0.122380000000     0.349440000000     0.675300000000    -0.0225347  
C129     C      0.120140000000     0.390390000000     0.675870000000    -0.0224262  
C130     C      0.121520000000     0.381530000000     0.722390000000     0.0141623  
C131     C      0.122790000000     0.358170000000     0.722320000000     0.0132064  
C132     C      0.124290000000     0.345900000000     0.762720000000    -0.0655236  
C133     C      0.125750000000     0.349820000000     0.850100000000    -0.0225333  
C134     C      0.121710000000     0.393930000000     0.762510000000    -0.0666439  
C135     C      0.124480000000     0.358360000000     0.803010000000     0.0131597  
C136     C      0.123230000000     0.381710000000     0.802730000000     0.0142497  
C137     C      0.120410000000     0.354420000000     0.175770000000    -0.0225845  
C138     C      0.123680000000     0.395080000000     0.350150000000    -0.022517   
C139     C      0.121400000000     0.354130000000     0.349200000000    -0.0224377  
C140     C      0.121620000000     0.363170000000     0.302730000000     0.0141989  
C141     C      0.122910000000     0.386520000000     0.303030000000     0.013163   
C142     C      0.123310000000     0.398950000000     0.262720000000    -0.0653819  
C143     C      0.122630000000     0.395370000000     0.175250000000    -0.0223775  
C144     C      0.120680000000     0.350930000000     0.262460000000    -0.0666542  
C145     C      0.122350000000     0.386660000000     0.222280000000     0.0131291  
C146     C      0.121080000000     0.363310000000     0.222330000000     0.0142899  
C147     C      0.041760000000     0.392830000000     0.004680000000    -0.0224016  
C148     C      0.955160000000     0.351800000000     0.983950000000    -0.0225946  
C149     C      0.955070000000     0.392810000000     0.985020000000    -0.0225642  
C150     C      0.978390000000     0.384000000000     0.989940000000     0.0137664  
C151     C      0.978440000000     0.360620000000     0.989330000000     0.0137511  
C152     C      0.998510000000     0.348270000000     0.993700000000    -0.0658783  
C153     C      0.041860000000     0.351830000000     0.003620000000    -0.0224789  
C154     C      0.998420000000     0.396360000000     0.994970000000    -0.0659542  
C155     C      0.018530000000     0.360620000000     0.998730000000     0.0137223  
C156     C      0.018480000000     0.384010000000     0.999350000000     0.0137286  
C157     C      0.703170000000     0.361380000000     0.437270000000    -0.0228138  
C158     C      0.790410000000     0.390050000000     0.495000000000    -0.0229455  
C159     C      0.790430000000     0.356600000000     0.447530000000    -0.0228059  
C160     C      0.767010000000     0.364690000000     0.455290000000     0.0137385  
C161     C      0.767010000000     0.382790000000     0.484880000000     0.014566   
C162     C      0.746870000000     0.391540000000     0.502350000000    -0.0664991  
C163     C      0.703380000000     0.387300000000     0.500790000000    -0.0230206  
C164     C      0.746840000000     0.356420000000     0.436720000000    -0.065756   
C165     C      0.726720000000     0.382280000000     0.485980000000     0.0145667  
C166     C      0.726680000000     0.366280000000     0.451880000000     0.0137154  
C167     C      0.619420000000     0.453350000000     0.515540000000    -0.0226732  
C168     C      0.622730000000     0.541990000000     0.440410000000    -0.022402   
C169     C      0.620570000000     0.539960000000     0.522120000000    -0.0226642  
C170     C      0.620640000000     0.517080000000     0.502300000000     0.0145837  
C171     C      0.621870000000     0.518060000000     0.455690000000     0.0127635  
C172     C      0.622240000000     0.498300000000     0.429450000000    -0.0651288  
C173     C      0.621550000000     0.454310000000     0.433750000000    -0.0225019  
C174     C      0.619700000000     0.496530000000     0.525320000000    -0.0669048  
C175     C      0.621290000000     0.477620000000     0.452600000000     0.0128425  
C176     C      0.620050000000     0.476890000000     0.499230000000     0.0145165  
C177     C      0.792080000000     0.387590000000     0.945830000000    -0.0227929  
C178     C      0.705110000000     0.358310000000     0.002300000000    -0.0228536  
C179     C      0.704740000000     0.382690000000     0.936380000000    -0.0228758  
C180     C      0.728300000000     0.378050000000     0.951140000000     0.0138428  
C181     C      0.728400000000     0.362830000000     0.986620000000     0.01456    
C182     C      0.748550000000     0.353840000000     0.003540000000    -0.0664838  
C183     C      0.792060000000     0.355020000000     0.995670000000    -0.0230489  
C184     C      0.748460000000     0.387570000000     0.935050000000    -0.0656055  
C185     C      0.768670000000     0.362140000000     0.985150000000     0.014643   
C186     C      0.768650000000     0.379650000000     0.954170000000     0.0137564  
C187     C      0.624510000000     0.452550000000     0.024940000000    -0.0226959  
C188     C      0.624300000000     0.541360000000     0.949780000000    -0.0224652  
C189     C      0.624550000000     0.539570000000     0.031640000000    -0.0224819  
C190     C      0.624520000000     0.516570000000     0.012120000000     0.0139483  
C191     C      0.624230000000     0.517530000000     0.965450000000     0.0134839  
C192     C      0.623800000000     0.497840000000     0.939240000000    -0.0657616  
C193     C      0.623290000000     0.454100000000     0.943090000000    -0.0224224  
C194     C      0.624670000000     0.495950000000     0.035230000000    -0.066259   
C195     C      0.623830000000     0.477190000000     0.962380000000     0.0133681  
C196     C      0.624390000000     0.476290000000     0.009060000000     0.0141212  
C197     C      0.541400000000     0.623030000000     0.540930000000    -0.0222365  
C198     C      0.453900000000     0.620850000000     0.460660000000    -0.0225376  
C199     C      0.453830000000     0.622660000000     0.542530000000    -0.0223098  
C200     C      0.477330000000     0.622390000000     0.524890000000     0.0130517  
C201     C      0.477230000000     0.621420000000     0.478210000000     0.0144138  
C202     C      0.497230000000     0.621120000000     0.453220000000    -0.0668251  
C203     C      0.540630000000     0.621650000000     0.459040000000    -0.0225354  
C204     C      0.497650000000     0.622990000000     0.549240000000    -0.0653402  
C205     C      0.517450000000     0.621770000000     0.477450000000     0.0144367  
C206     C      0.517760000000     0.622620000000     0.524150000000     0.0129977  
C207     C      0.455380000000     0.621550000000     0.038090000000    -0.0225743  
C208     C      0.542270000000     0.623020000000     0.955080000000    -0.0223363  
C209     C      0.542130000000     0.620390000000     0.036860000000    -0.0224283  
C210     C      0.518810000000     0.621210000000     0.019250000000     0.0143465  
C211     C      0.518760000000     0.622670000000     0.972620000000     0.0131564  
C212     C      0.498480000000     0.623630000000     0.948200000000    -0.0654389  
C213     C      0.454730000000     0.623830000000     0.956280000000    -0.0222875  
C214     C      0.498770000000     0.620750000000     0.044130000000    -0.0667663  
C215     C      0.478350000000     0.623110000000     0.973180000000     0.0130759  
C216     C      0.478580000000     0.621760000000     0.019820000000     0.0144338  
C217     C      0.290830000000     0.383600000000     0.542900000000    -0.022833   
C218     C      0.202890000000     0.355300000000     0.489180000000    -0.022827   
C219     C      0.203420000000     0.387760000000     0.539290000000    -0.0228126  
C220     C      0.226760000000     0.380100000000     0.529130000000     0.0139049  
C221     C      0.226380000000     0.362670000000     0.498000000000     0.0144928  
C222     C      0.246260000000     0.354620000000     0.478130000000    -0.0663472  
C223     C      0.289700000000     0.359410000000     0.476740000000    -0.0227931  
C224     C      0.247180000000     0.388170000000     0.546960000000    -0.0658304  
C225     C      0.266600000000     0.363790000000     0.493740000000     0.0144571  
C226     C      0.267130000000     0.378900000000     0.529380000000     0.0139751  
C227     C      0.452290000000     0.370480000000     0.450470000000    -0.0225788  
C228     C      0.541250000000     0.370120000000     0.525140000000    -0.022512   
C229     C      0.539490000000     0.371070000000     0.443300000000    -0.0225938  
C230     C      0.516450000000     0.370610000000     0.462800000000     0.0136585  
C231     C      0.517450000000     0.370220000000     0.509470000000     0.013743   
C232     C      0.497800000000     0.370160000000     0.535760000000    -0.0660237  
C233     C      0.454120000000     0.370580000000     0.532330000000    -0.0224946  
C234     C      0.495780000000     0.370660000000     0.439780000000    -0.0659522  
C235     C      0.477130000000     0.370340000000     0.512750000000     0.0136684  
C236     C      0.476120000000     0.370440000000     0.466070000000     0.0137229  
C237     C      0.370900000000     0.452810000000     0.453350000000    -0.0223679  
C238     C      0.373780000000     0.540210000000     0.533940000000    -0.0225852  
C239     C      0.370960000000     0.540380000000     0.452180000000    -0.0223435  
C240     C      0.371590000000     0.516850000000     0.469670000000     0.0130764  
C241     C      0.373210000000     0.516910000000     0.516290000000     0.0143961  
C242     C      0.374080000000     0.496870000000     0.541120000000    -0.0667627  
C243     C      0.373830000000     0.453480000000     0.535070000000    -0.0224595  
C244     C      0.370710000000     0.496560000000     0.445270000000    -0.0653321  
C245     C      0.373230000000     0.476680000000     0.516820000000     0.0143742  
C246     C      0.371580000000     0.476430000000     0.470210000000     0.0131161  
C247     C      0.291800000000     0.387900000000     0.986890000000    -0.023259   
C248     C      0.204990000000     0.356790000000     0.040770000000    -0.0226272  
C249     C      0.204810000000     0.390470000000     0.993990000000    -0.0230579  
C250     C      0.228250000000     0.383220000000     0.003730000000     0.0147001  
C251     C      0.228390000000     0.364960000000     0.032920000000     0.0135584  
C252     C      0.248640000000     0.356600000000     0.050970000000    -0.0655641  
C253     C      0.292330000000     0.361570000000     0.049730000000    -0.0227907  
C254     C      0.248320000000     0.392100000000     0.986180000000    -0.0666459  
C255     C      0.268740000000     0.366580000000     0.035730000000     0.0135524  
C256     C      0.268540000000     0.382780000000     0.002040000000     0.014768   
C257     C      0.456080000000     0.371530000000     0.038640000000    -0.0225851  
C258     C      0.540780000000     0.371670000000     0.946890000000    -0.0225122  
C259     C      0.543160000000     0.371320000000     0.028680000000    -0.0225512  
C260     C      0.519240000000     0.371310000000     0.013770000000     0.013835   
C261     C      0.517890000000     0.371380000000     0.967120000000     0.013515   
C262     C      0.497020000000     0.371220000000     0.944770000000    -0.0658861  
C263     C      0.453630000000     0.370960000000     0.956860000000    -0.0225663  
C264     C      0.499800000000     0.371340000000     0.040690000000    -0.066069   
C265     C      0.477580000000     0.371110000000     0.971710000000     0.013602   
C266     C      0.478950000000     0.371300000000     0.018350000000     0.0137692  
C267     C      0.374070000000     0.454110000000     0.054100000000    -0.022321   
C268     C      0.375300000000     0.540750000000     0.969980000000    -0.0226187  
C269     C      0.373330000000     0.541730000000     0.051810000000    -0.0223579  
C270     C      0.374030000000     0.518030000000     0.035280000000     0.0129879  
C271     C      0.375130000000     0.517630000000     0.988610000000     0.0144796  
C272     C      0.375830000000     0.497370000000     0.964550000000    -0.066902   
C273     C      0.375820000000     0.454090000000     0.972230000000    -0.0225675  
C274     C      0.373630000000     0.497980000000     0.060540000000    -0.065269   
C275     C      0.375420000000     0.477430000000     0.989680000000     0.0144788  
C276     C      0.374380000000     0.477600000000     0.036350000000     0.0129645  
C277     C      0.634930000000     0.702750000000     0.538210000000    -0.0227673  
C278     C      0.604530000000     0.790990000000     0.491210000000    -0.0229607  
C279     C      0.638140000000     0.790200000000     0.538220000000    -0.0228056  
C280     C      0.630410000000     0.766910000000     0.527860000000     0.0137563  
C281     C      0.612210000000     0.767460000000     0.498520000000     0.0145452  
C282     C      0.603770000000     0.747730000000     0.478770000000    -0.0664851  
C283     C      0.608760000000     0.704360000000     0.475150000000    -0.0231369  
C284     C      0.639130000000     0.746390000000     0.543860000000    -0.0657917  
C285     C      0.613470000000     0.727310000000     0.492560000000     0.0145909  
C286     C      0.629590000000     0.726540000000     0.526390000000     0.0136958  
C287     C      0.639350000000     0.790790000000     0.988970000000    -0.0229914  
C288     C      0.611900000000     0.702660000000     0.043000000000    -0.0227488  
C289     C      0.635890000000     0.703970000000     0.976540000000    -0.0228414  
C290     C      0.631380000000     0.727030000000     0.993580000000     0.0145025  
C291     C      0.616370000000     0.726380000000     0.029400000000     0.0139746  
C292     C      0.606980000000     0.746250000000     0.047070000000    -0.0657948  
C293     C      0.607010000000     0.789980000000     0.039400000000    -0.0226955  
C294     C      0.640340000000     0.747440000000     0.977870000000    -0.0664759  
C295     C      0.614820000000     0.766720000000     0.029140000000     0.0139024  
C296     C      0.632180000000     0.767240000000     0.997820000000     0.0145819  
C297     C      0.599230000000     0.871940000000     0.676370000000    -0.0224553  
C298     C      0.640260000000     0.872820000000     0.850510000000    -0.0225376  
C299     C      0.599300000000     0.870490000000     0.851250000000    -0.0224634  
C300     C      0.607910000000     0.871380000000     0.804180000000     0.0131542  
C301     C      0.631270000000     0.872690000000     0.804010000000     0.0142703  
C302     C      0.643570000000     0.873720000000     0.763820000000    -0.0667155  
C303     C      0.640200000000     0.874170000000     0.677120000000    -0.0225419  
C304     C      0.595530000000     0.871050000000     0.763810000000    -0.0654165  
C305     C      0.631240000000     0.873390000000     0.723620000000     0.0143146  
C306     C      0.607880000000     0.872100000000     0.723450000000     0.0131614  
C307     C      0.604040000000     0.873210000000     0.177110000000    -0.0225102  
C308     C      0.644900000000     0.870030000000     0.351290000000    -0.0224605  
C309     C      0.603930000000     0.872210000000     0.350490000000    -0.0224341  
C310     C      0.612930000000     0.871950000000     0.304000000000     0.0141846  
C311     C      0.636290000000     0.870720000000     0.304210000000     0.0131536  
C312     C      0.648690000000     0.870360000000     0.263850000000    -0.0654929  
C313     C      0.645010000000     0.871130000000     0.176400000000    -0.0223939  
C314     C      0.600640000000     0.872850000000     0.263790000000    -0.0666431  
C315     C      0.636350000000     0.871270000000     0.223470000000     0.0131457  
C316     C      0.612980000000     0.872470000000     0.223610000000     0.0142303  
C317     C      0.605150000000     0.203490000000     0.464000000000    -0.022906   
C318     C      0.636040000000     0.291260000000     0.512680000000    -0.0228694  
C319     C      0.609610000000     0.290350000000     0.450000000000    -0.0229976  
C320     C      0.614460000000     0.267180000000     0.466280000000     0.0142478  
C321     C      0.630730000000     0.267630000000     0.499830000000     0.0140376  
C322     C      0.640280000000     0.247660000000     0.516590000000    -0.0661175  
C323     C      0.639070000000     0.203950000000     0.510140000000    -0.0229332  
C324     C      0.604580000000     0.246870000000     0.452210000000    -0.0662135  
C325     C      0.631430000000     0.227290000000     0.500210000000     0.0140771  
C326     C      0.613060000000     0.226970000000     0.471290000000     0.0142849  
C327     C      0.642910000000     0.040580000000     0.491670000000    -0.0224975  
C328     C      0.601970000000     0.953740000000     0.508650000000    -0.0224575  
C329     C      0.642980000000     0.953650000000     0.507110000000    -0.0224685  
C330     C      0.634170000000     0.977020000000     0.503360000000     0.0136701  
C331     C      0.610780000000     0.977060000000     0.504280000000     0.0138175  
C332     C      0.598420000000     0.997160000000     0.501120000000    -0.0659837  
C333     C      0.601900000000     0.040580000000     0.493490000000    -0.022472   
C334     C      0.646510000000     0.997110000000     0.499150000000    -0.0658202  
C335     C      0.610750000000     0.017230000000     0.496940000000     0.0138332  
C336     C      0.634140000000     0.017220000000     0.495950000000     0.0136731  
C337     C      0.639580000000     0.203520000000     0.004330000000    -0.0229109  
C338     C      0.611840000000     0.290100000000     0.941190000000    -0.0227489  
C339     C      0.637260000000     0.290510000000     0.005540000000    -0.0229225  
C340     C      0.632280000000     0.267050000000     0.991610000000     0.0146318  
C341     C      0.616510000000     0.266750000000     0.957110000000     0.0138445  
C342     C      0.606520000000     0.246460000000     0.942970000000    -0.0656455  
C343     C      0.606220000000     0.203060000000     0.956600000000    -0.0226842  
C344     C      0.641340000000     0.247100000000     0.009260000000    -0.0665604  
C345     C      0.614540000000     0.226510000000     0.962890000000     0.0137537  
C346     C      0.632530000000     0.226800000000     0.992730000000     0.0146266  
C347     C      0.601380000000     0.122060000000     0.651710000000    -0.0224968  
C348     C      0.642800000000     0.119760000000     0.825580000000    -0.0225762  
C349     C      0.601770000000     0.119340000000     0.825750000000    -0.0223851  
C350     C      0.610490000000     0.119950000000     0.778970000000     0.0136227  
C351     C      0.633890000000     0.120080000000     0.778830000000     0.0138472  
C352     C      0.646150000000     0.120640000000     0.738460000000    -0.0661061  
C353     C      0.642420000000     0.121710000000     0.651510000000    -0.0225482  
C354     C      0.598040000000     0.120600000000     0.738810000000    -0.0660433  
C355     C      0.633690000000     0.121160000000     0.698300000000     0.0137424  
C356     C      0.610300000000     0.121250000000     0.698450000000     0.0137554  
C357     C      0.601870000000     0.122400000000     0.325870000000    -0.0223617  
C358     C      0.642130000000     0.124350000000     0.151260000000    -0.0224231  
C359     C      0.601110000000     0.124760000000     0.151730000000    -0.0224538  
C360     C      0.610110000000     0.124330000000     0.198450000000     0.0136951  
C361     C      0.633500000000     0.124230000000     0.198120000000     0.0136179  
C362     C      0.646040000000     0.123800000000     0.238190000000    -0.0659854  
C363     C      0.642890000000     0.122890000000     0.325370000000    -0.0224833  
C364     C      0.597940000000     0.123750000000     0.238940000000    -0.0660036  
C365     C      0.633880000000     0.123370000000     0.278670000000     0.0137463  
C366     C      0.610480000000     0.123220000000     0.279000000000     0.0135866  
C367     C      0.601060000000     0.953390000000     0.010240000000    -0.0224736  
C368     C      0.642000000000     0.040370000000     0.996750000000    -0.0226535  
C369     C      0.600970000000     0.040440000000     0.997760000000    -0.0225318  
C370     C      0.609780000000     0.017050000000     0.001080000000     0.0136479  
C371     C      0.633170000000     0.017040000000     0.000620000000     0.0140274  
C372     C      0.645550000000     0.996950000000     0.003530000000    -0.0662054  
C373     C      0.642090000000     0.953500000000     0.009980000000    -0.0225041  
C374     C      0.597440000000     0.996920000000     0.004270000000    -0.0658369  
C375     C      0.633210000000     0.976840000000     0.006850000000     0.0139476  
C376     C      0.609820000000     0.976810000000     0.007110000000     0.0136551  
C377     C      0.203830000000     0.606270000000     0.518350000000    -0.0227498  
C378     C      0.291170000000     0.634470000000     0.460860000000    -0.0226433  
C379     C      0.290820000000     0.608510000000     0.524350000000    -0.0229443  
C380     C      0.267520000000     0.613720000000     0.509600000000     0.0146095  
C381     C      0.267670000000     0.629730000000     0.475520000000     0.013799   
C382     C      0.247590000000     0.639700000000     0.460300000000    -0.0658454  
C383     C      0.204040000000     0.639730000000     0.470910000000    -0.0226302  
C384     C      0.247330000000     0.604550000000     0.525900000000    -0.0665534  
C385     C      0.227390000000     0.631530000000     0.478810000000     0.0138485  
C386     C      0.227260000000     0.613430000000     0.508390000000     0.0145455  
C387     C      0.205230000000     0.606180000000     0.981700000000    -0.0227728  
C388     C      0.292270000000     0.634880000000     0.040190000000    -0.0226466  
C389     C      0.292200000000     0.608360000000     0.977640000000    -0.0229759  
C390     C      0.268850000000     0.613630000000     0.991880000000     0.0146381  
C391     C      0.268820000000     0.629930000000     0.025400000000     0.0137709  
C392     C      0.248660000000     0.640030000000     0.039840000000    -0.065787   
C393     C      0.205150000000     0.639980000000     0.028180000000    -0.0226316  
C394     C      0.248750000000     0.604340000000     0.975400000000    -0.0666649  
C395     C      0.228550000000     0.631700000000     0.021170000000     0.0137679  
C396     C      0.228590000000     0.613370000000     0.992140000000     0.0146     
C397     C      0.123620000000     0.605960000000     0.662250000000    -0.0226048  
C398     C      0.127050000000     0.646810000000     0.836460000000    -0.0223849  
C399     C      0.124850000000     0.605860000000     0.835680000000    -0.0225412  
C400     C      0.125230000000     0.614850000000     0.789170000000     0.0142232  
C401     C      0.126490000000     0.638200000000     0.789370000000     0.0130624  
C402     C      0.126870000000     0.650580000000     0.748990000000    -0.0654103  
C403     C      0.125920000000     0.646910000000     0.661520000000    -0.0224391  
C404     C      0.124250000000     0.602560000000     0.748960000000    -0.0666353  
C405     C      0.125930000000     0.638250000000     0.708600000000     0.0130916  
C406     C      0.124630000000     0.614890000000     0.708760000000     0.01423    
C407     C      0.121620000000     0.601350000000     0.336430000000    -0.0224877  
C408     C      0.120180000000     0.642250000000     0.162200000000    -0.022638   
C409     C      0.122180000000     0.601280000000     0.161580000000    -0.022376   
C410     C      0.121390000000     0.609930000000     0.208620000000     0.0131805  
C411     C      0.120240000000     0.633290000000     0.208730000000     0.0142913  
C412     C      0.119510000000     0.645630000000     0.248910000000    -0.0666195  
C413     C      0.119610000000     0.642320000000     0.335650000000    -0.0224361  
C414     C      0.121880000000     0.597590000000     0.249010000000    -0.0654361  
C415     C      0.119970000000     0.633320000000     0.289140000000     0.0142294  
C416     C      0.121120000000     0.609960000000     0.289350000000     0.0132151  
C417     C      0.703700000000     0.635230000000     0.456690000000    -0.0225632  
C418     C      0.790900000000     0.605940000000     0.513120000000    -0.0227473  
C419     C      0.790820000000     0.640470000000     0.468830000000    -0.0226617  
C420     C      0.767460000000     0.631990000000     0.475350000000     0.0137343  
C421     C      0.767500000000     0.613200000000     0.503180000000     0.0146149  
C422     C      0.747390000000     0.603850000000     0.519400000000    -0.0666571  
C423     C      0.703920000000     0.607740000000     0.517550000000    -0.0230547  
C424     C      0.747310000000     0.640540000000     0.457260000000    -0.0657162  
C425     C      0.727240000000     0.613320000000     0.503580000000     0.0147022  
C426     C      0.727190000000     0.630140000000     0.471100000000     0.0136538  
C427     C      0.953830000000     0.604410000000     0.501370000000    -0.022446   
C428     C      0.041030000000     0.645340000000     0.503470000000    -0.0223056  
C429     C      0.040900000000     0.604320000000     0.502100000000    -0.0225467  
C430     C      0.017530000000     0.613200000000     0.502660000000     0.0140398  
C431     C      0.017570000000     0.636590000000     0.503480000000     0.0136217  
C432     C      0.997400000000     0.648970000000     0.503800000000    -0.0658873  
C433     C      0.953770000000     0.645430000000     0.503050000000    -0.0224173  
C434     C      0.997360000000     0.600870000000     0.502020000000    -0.0662127  
C435     C      0.977220000000     0.636630000000     0.503260000000     0.0136938  
C436     C      0.977220000000     0.613240000000     0.502350000000     0.0139944  
C437     C      0.705000000000     0.636160000000     0.972140000000    -0.0226336  
C438     C      0.792480000000     0.607890000000     0.027120000000    -0.0227289  
C439     C      0.791900000000     0.640960000000     0.978600000000    -0.0227653  
C440     C      0.768640000000     0.633330000000     0.988830000000     0.0144736  
C441     C      0.768950000000     0.615530000000     0.019130000000     0.0140998  
C442     C      0.748960000000     0.607080000000     0.038030000000    -0.0659322  
C443     C      0.705270000000     0.611230000000     0.037250000000    -0.0227368  
C444     C      0.748370000000     0.641430000000     0.970770000000    -0.0663881  
C445     C      0.728650000000     0.616370000000     0.022350000000     0.0141897  
C446     C      0.728410000000     0.631890000000     0.987400000000     0.0143746  
C447     C      0.870570000000     0.603460000000     0.834010000000    -0.0225646  
C448     C      0.869530000000     0.645050000000     0.660180000000    -0.0224809  
C449     C      0.870090000000     0.604040000000     0.659810000000    -0.0224415  
C450     C      0.869850000000     0.612700000000     0.706670000000     0.0135973  
C451     C      0.869660000000     0.636090000000     0.706910000000     0.0137476  
C452     C      0.869940000000     0.648300000000     0.747360000000    -0.0661087  
C453     C      0.870890000000     0.644480000000     0.834300000000    -0.0224799  
C454     C      0.870070000000     0.600200000000     0.746800000000    -0.0660556  
C455     C      0.870240000000     0.635800000000     0.787480000000     0.0136544  
C456     C      0.870180000000     0.612410000000     0.787260000000     0.0137101  
C457     C      0.875450000000     0.645280000000     0.160160000000    -0.0225172  
C458     C      0.874880000000     0.603700000000     0.333940000000    -0.0224552  
C459     C      0.874960000000     0.644720000000     0.334310000000    -0.022354   
C460     C      0.875320000000     0.636050000000     0.287470000000     0.0136625  
C461     C      0.875390000000     0.612660000000     0.287230000000     0.0137931  
C462     C      0.875740000000     0.600450000000     0.246800000000    -0.0660303  
C463     C      0.876160000000     0.604260000000     0.159860000000    -0.0224234  
C464     C      0.875370000000     0.648550000000     0.247340000000    -0.0660629  
C465     C      0.875930000000     0.612940000000     0.206690000000     0.0136932  
C466     C      0.875640000000     0.636330000000     0.206910000000     0.013795   
C467     C      0.955100000000     0.644960000000     0.992880000000    -0.0224531  
C468     C      0.042230000000     0.603910000000     0.993460000000    -0.0224191  
C469     C      0.042290000000     0.644930000000     0.993920000000    -0.0223254  
C470     C      0.018850000000     0.636140000000     0.993000000000     0.0137395  
C471     C      0.018840000000     0.612750000000     0.992630000000     0.0138795  
C472     C      0.998680000000     0.600400000000     0.992040000000    -0.0660391  
C473     C      0.955110000000     0.603940000000     0.991730000000    -0.0223479  
C474     C      0.998690000000     0.648500000000     0.992990000000    -0.0659391  
C475     C      0.978520000000     0.612760000000     0.991870000000     0.0138375  
C476     C      0.978520000000     0.636150000000     0.992430000000     0.0138045  
C477     C      0.353660000000     0.203330000000     0.480970000000    -0.0227598  
C478     C      0.382440000000     0.290320000000     0.539340000000    -0.0227117  
C479     C      0.357430000000     0.290240000000     0.474340000000    -0.0227461  
C480     C      0.361980000000     0.266910000000     0.489680000000     0.0145258  
C481     C      0.377540000000     0.266870000000     0.524570000000     0.0140294  
C482     C      0.387100000000     0.246670000000     0.540220000000    -0.0658481  
C483     C      0.386790000000     0.203140000000     0.529370000000    -0.0228206  
C484     C      0.352670000000     0.246840000000     0.473100000000    -0.0664529  
C485     C      0.378880000000     0.226580000000     0.521370000000     0.0140413  
C486     C      0.361040000000     0.226670000000     0.491140000000     0.0145055  
C487     C      0.354600000000     0.204520000000     0.976030000000    -0.0227062  
C488     C      0.385840000000     0.290760000000     0.032910000000    -0.0229599  
C489     C      0.358980000000     0.291790000000     0.970960000000    -0.0227032  
C490     C      0.364060000000     0.268130000000     0.984080000000     0.0137595  
C491     C      0.380560000000     0.267630000000     0.017210000000     0.0145874  
C492     C      0.390170000000     0.247290000000     0.031670000000    -0.0665317  
C493     C      0.388770000000     0.203910000000     0.021410000000    -0.0227997  
C494     C      0.354060000000     0.248200000000     0.968190000000    -0.0658532  
C495     C      0.381230000000     0.227410000000     0.013430000000     0.0145351  
C496     C      0.362680000000     0.227810000000     0.984950000000     0.0138393  
C497     C      0.350500000000     0.121290000000     0.837460000000    -0.022274   
C498     C      0.390930000000     0.119830000000     0.663010000000    -0.0223552  
C499     C      0.349900000000     0.120400000000     0.663340000000    -0.0224682  
C500     C      0.358860000000     0.120420000000     0.710070000000     0.0137741  
C501     C      0.382260000000     0.120200000000     0.709830000000     0.0136748  
C502     C      0.394770000000     0.120520000000     0.749930000000    -0.0660809  
C503     C      0.391530000000     0.121470000000     0.837070000000    -0.0225117  
C504     C      0.346650000000     0.120750000000     0.750510000000    -0.0660262  
C505     C      0.382560000000     0.120940000000     0.790370000000     0.0138108  
C506     C      0.359160000000     0.120940000000     0.790620000000     0.013625   
C507     C      0.350640000000     0.123870000000     0.337460000000    -0.0224373  
C508     C      0.391120000000     0.123820000000     0.163010000000    -0.0223922  
C509     C      0.350090000000     0.124350000000     0.163350000000    -0.0226464  
C510     C      0.359050000000     0.124370000000     0.210080000000     0.0138259  
C511     C      0.382450000000     0.124200000000     0.209850000000     0.0135703  
C512     C      0.394950000000     0.124240000000     0.249990000000    -0.0660032  
C513     C      0.391670000000     0.124280000000     0.337180000000    -0.0225073  
C514     C      0.346830000000     0.124320000000     0.250520000000    -0.0661171  
C515     C      0.382720000000     0.124340000000     0.290430000000     0.0137042  
C516     C      0.359330000000     0.124250000000     0.290640000000     0.0136699  
C517     C      0.389020000000     0.790210000000     0.477490000000    -0.0228031  
C518     C      0.360160000000     0.703030000000     0.534630000000    -0.0226634  
C519     C      0.386110000000     0.703250000000     0.471130000000    -0.0228553  
C520     C      0.381100000000     0.726570000000     0.486010000000     0.0144996  
C521     C      0.365100000000     0.726510000000     0.520100000000     0.0138428  
C522     C      0.355270000000     0.746640000000     0.535400000000    -0.0658812  
C523     C      0.355540000000     0.790200000000     0.524910000000    -0.0227091  
C524     C      0.390430000000     0.746710000000     0.469800000000    -0.0664823  
C525     C      0.363590000000     0.766800000000     0.516980000000     0.0138621  
C526     C      0.381710000000     0.766820000000     0.487390000000     0.0145284  
C527     C      0.391660000000     0.953220000000     0.493500000000    -0.0222799  
C528     C      0.350480000000     0.040270000000     0.496090000000    -0.022493   
C529     C      0.391510000000     0.040360000000     0.494960000000    -0.0222728  
C530     C      0.382730000000     0.016930000000     0.494360000000     0.0137157  
C531     C      0.359340000000     0.016880000000     0.494910000000     0.013895   
C532     C      0.347010000000     0.996700000000     0.494690000000    -0.0660483  
C533     C      0.350630000000     0.953120000000     0.493930000000    -0.0224342  
C534     C      0.395120000000     0.996790000000     0.493770000000    -0.0658837  
C535     C      0.359400000000     0.976560000000     0.493940000000     0.0138594  
C536     C      0.382800000000     0.976610000000     0.493590000000     0.0137393  
C537     C      0.355860000000     0.790790000000     0.970080000000    -0.0226271  
C538     C      0.386910000000     0.704410000000     0.026290000000    -0.0229913  
C539     C      0.360770000000     0.703540000000     0.963130000000    -0.0225964  
C540     C      0.365670000000     0.727170000000     0.976790000000     0.0136847  
C541     C      0.381780000000     0.727570000000     0.010680000000     0.0146781  
C542     C      0.391060000000     0.747870000000     0.026150000000    -0.0666046  
C543     C      0.389450000000     0.791290000000     0.017190000000    -0.0228858  
C544     C      0.355730000000     0.747140000000     0.960950000000    -0.0657318  
C545     C      0.382210000000     0.767810000000     0.008020000000     0.0146623  
C546     C      0.364030000000     0.767480000000     0.978630000000     0.0137081  
C547     C      0.394290000000     0.872620000000     0.659620000000    -0.0223948  
C548     C      0.353220000000     0.875110000000     0.833660000000    -0.0225955  
C549     C      0.394200000000     0.873170000000     0.834470000000    -0.0223108  
C550     C      0.385590000000     0.873630000000     0.787390000000     0.0131144  
C551     C      0.362220000000     0.874740000000     0.787160000000     0.0143487  
C552     C      0.349920000000     0.875190000000     0.746930000000    -0.0667246  
C553     C      0.353310000000     0.874580000000     0.660240000000    -0.0225288  
C554     C      0.397980000000     0.872890000000     0.747060000000    -0.0653438  
C555     C      0.362270000000     0.874480000000     0.706770000000     0.0143266  
C556     C      0.385630000000     0.873360000000     0.706650000000     0.0131236  
C557     C      0.389670000000     0.871110000000     0.333690000000    -0.0225988  
C558     C      0.348620000000     0.869400000000     0.159550000000    -0.022546   
C559     C      0.389580000000     0.871780000000     0.160260000000    -0.0225317  
C560     C      0.380640000000     0.870930000000     0.206780000000     0.0142168  
C561     C      0.357280000000     0.869590000000     0.206620000000     0.0131353  
C562     C      0.344940000000     0.868750000000     0.247020000000    -0.0654441  
C563     C      0.348710000000     0.868820000000     0.334490000000    -0.0223617  
C564     C      0.392970000000     0.871480000000     0.246970000000    -0.0666721  
C565     C      0.357320000000     0.869290000000     0.287390000000     0.0130665  
C566     C      0.380680000000     0.870610000000     0.287190000000     0.0142577  
C567     C      0.391080000000     0.954120000000     0.999920000000    -0.0224191  
C568     C      0.349870000000     0.041190000000     0.003020000000    -0.0223683  
C569     C      0.390890000000     0.041190000000     0.001290000000    -0.0223168  
C570     C      0.382090000000     0.017780000000     0.001560000000     0.0139054  
C571     C      0.358690000000     0.017750000000     0.002500000000     0.0136791  
C572     C      0.346370000000     0.997550000000     0.002570000000    -0.0659031  
C573     C      0.350060000000     0.953930000000     0.001340000000    -0.0223609  
C574     C      0.394480000000     0.997660000000     0.000720000000    -0.0660741  
C575     C      0.358780000000     0.977400000000     0.001730000000     0.013657   
C576     C      0.382170000000     0.977480000000     0.000870000000     0.0139535  
Cu1      Cu     0.350490000000     0.872230000000     0.995230000000     0.842209   
Cu2      Cu     0.392220000000     0.872710000000     0.998680000000     0.846753   
Cu3      Cu     0.350640000000     0.871510000000     0.498790000000     0.84372    
Cu4      Cu     0.392380000000     0.871740000000     0.495300000000     0.845969   
Cu5      Cu     0.349920000000     0.122930000000     0.999570000000     0.843342   
Cu6      Cu     0.391700000000     0.122590000000     0.000820000000     0.846813   
Cu7      Cu     0.349890000000     0.121770000000     0.499520000000     0.846492   
Cu8      Cu     0.391670000000     0.121920000000     0.501020000000     0.844162   
Cu9      Cu     0.873540000000     0.645240000000     0.996340000000     0.846134   
Cu10     Cu     0.873590000000     0.603480000000     0.997860000000     0.84449    
Cu11     Cu     0.872070000000     0.645280000000     0.496420000000     0.843125   
Cu12     Cu     0.872460000000     0.603510000000     0.497620000000     0.847181   
Cu13     Cu     0.123910000000     0.644910000000     0.000750000000     0.843217   
Cu14     Cu     0.123670000000     0.603180000000     0.997300000000     0.846593   
Cu15     Cu     0.122720000000     0.645040000000     0.497210000000     0.842749   
Cu16     Cu     0.122320000000     0.603320000000     0.500660000000     0.847024   
Cu17     Cu     0.600990000000     0.122040000000     0.987820000000     0.842403   
Cu18     Cu     0.642770000000     0.121780000000     0.989280000000     0.846679   
Cu19     Cu     0.601340000000     0.122140000000     0.488000000000     0.844512   
Cu20     Cu     0.643110000000     0.122250000000     0.489290000000     0.843304   
Cu21     Cu     0.601300000000     0.871660000000     0.015620000000     0.842314   
Cu22     Cu     0.643030000000     0.872060000000     0.012030000000     0.846157   
Cu23     Cu     0.601190000000     0.872260000000     0.512080000000     0.845643   
Cu24     Cu     0.642920000000     0.871960000000     0.515550000000     0.841965   
Cu25     Cu     0.371830000000     0.373640000000     0.967140000000     0.845781   
Cu26     Cu     0.374970000000     0.371580000000     0.050000000000     0.838607   
Cu27     Cu     0.370200000000     0.370560000000     0.458820000000     0.844088   
Cu28     Cu     0.373120000000     0.372690000000     0.542010000000     0.846124   
Cu29     Cu     0.374600000000     0.623980000000     0.044550000000     0.843184   
Cu30     Cu     0.372540000000     0.621380000000     0.961620000000     0.8443     
Cu31     Cu     0.371500000000     0.620890000000     0.539060000000     0.843789   
Cu32     Cu     0.373210000000     0.622710000000     0.456010000000     0.843939   
Cu33     Cu     0.624960000000     0.370790000000     0.019410000000     0.848276   
Cu34     Cu     0.622060000000     0.372700000000     0.936210000000     0.839673   
Cu35     Cu     0.620650000000     0.371510000000     0.434780000000     0.836796   
Cu36     Cu     0.623120000000     0.372960000000     0.517780000000     0.846336   
Cu37     Cu     0.624560000000     0.623480000000     0.958380000000     0.843578   
Cu38     Cu     0.622950000000     0.620470000000     0.041610000000     0.847512   
Cu39     Cu     0.621380000000     0.624220000000     0.452150000000     0.841891   
Cu40     Cu     0.623580000000     0.620480000000     0.534880000000     0.843095   
Cu41     Cu     0.123500000000     0.351830000000     0.014290000000     0.841584   
Cu42     Cu     0.123250000000     0.393540000000     0.010880000000     0.844853   
Cu43     Cu     0.121750000000     0.393020000000     0.514390000000     0.842106   
Cu44     Cu     0.121530000000     0.351310000000     0.510850000000     0.844912   
Cu45     Cu     0.873650000000     0.351210000000     0.977630000000     0.844709   
Cu46     Cu     0.873480000000     0.392920000000     0.974090000000     0.841856   
Cu47     Cu     0.871860000000     0.351760000000     0.474230000000     0.842158   
Cu48     Cu     0.872010000000     0.393480000000     0.477660000000     0.844696   
H1       H      0.853910000000     0.340340000000     0.632720000000     0.0435707  
H2       H      0.857180000000     0.401790000000     0.634140000000     0.0434858  
H3       H      0.875200000000     0.412070000000     0.726090000000     0.0441584  
H4       H      0.870570000000     0.327570000000     0.725720000000     0.0442677  
H5       H      0.858060000000     0.339670000000     0.821130000000     0.043927   
H6       H      0.891950000000     0.399680000000     0.817990000000     0.0439985  
H7       H      0.884320000000     0.338460000000     0.630370000000     0.0438411  
H8       H      0.887630000000     0.400480000000     0.631790000000     0.0444102  
H9       H      0.861540000000     0.401710000000     0.820220000000     0.0440555  
H10      H      0.888510000000     0.338260000000     0.818900000000     0.0434523  
H11      H      0.885300000000     0.406240000000     0.130990000000     0.0437545  
H12      H      0.888650000000     0.344310000000     0.132500000000     0.0444029  
H13      H      0.874920000000     0.332610000000     0.226130000000     0.0441752  
H14      H      0.870330000000     0.417110000000     0.225670000000     0.0442705  
H15      H      0.887080000000     0.406410000000     0.319600000000     0.0435888  
H16      H      0.859990000000     0.343020000000     0.319650000000     0.0439689  
H17      H      0.854860000000     0.404400000000     0.131830000000     0.0436606  
H18      H      0.858190000000     0.342870000000     0.133310000000     0.0435492  
H19      H      0.890430000000     0.344870000000     0.318790000000     0.0441213  
H20      H      0.856630000000     0.404940000000     0.320490000000     0.0438978  
H21      H      0.951980000000     0.402950000000     0.452470000000     0.0437644  
H22      H      0.951880000000     0.341470000000     0.454110000000     0.0436021  
H23      H      0.996710000000     0.330120000000     0.496250000000     0.0442326  
H24      H      0.996830000000     0.414740000000     0.493950000000     0.0442536  
H25      H      0.045130000000     0.403340000000     0.475490000000     0.044282   
H26      H      0.041610000000     0.341950000000     0.537690000000     0.0437851  
H27      H      0.948480000000     0.403700000000     0.512950000000     0.0441084  
H28      H      0.948370000000     0.341530000000     0.514600000000     0.0442159  
H29      H      0.045000000000     0.341120000000     0.477190000000     0.0441981  
H30      H      0.041730000000     0.403360000000     0.536010000000     0.0435686  
H31      H      0.134590000000     0.401760000000     0.668320000000     0.0439349  
H32      H      0.137970000000     0.339790000000     0.667410000000     0.043912   
H33      H      0.125260000000     0.327670000000     0.762810000000     0.0443364  
H34      H      0.120720000000     0.412170000000     0.762420000000     0.0441106  
H35      H      0.138440000000     0.401880000000     0.854600000000     0.0434668  
H36      H      0.111290000000     0.338550000000     0.857980000000     0.0438334  
H37      H      0.104170000000     0.399850000000     0.670470000000     0.0440541  
H38      H      0.107530000000     0.338350000000     0.669570000000     0.0435583  
H39      H      0.141700000000     0.340430000000     0.856020000000     0.0435953  
H40      H      0.107990000000     0.400560000000     0.856540000000     0.0444337  
H41      H      0.136120000000     0.342900000000     0.355260000000     0.0435495  
H42      H      0.139550000000     0.404510000000     0.356710000000     0.0437447  
H43      H      0.124330000000     0.417190000000     0.262820000000     0.044307   
H44      H      0.119690000000     0.332690000000     0.262360000000     0.0441764  
H45      H      0.134990000000     0.343090000000     0.169090000000     0.0440034  
H46      H      0.107880000000     0.406470000000     0.168650000000     0.0435922  
H47      H      0.105670000000     0.344470000000     0.355920000000     0.0442762  
H48      H      0.109110000000     0.406320000000     0.357410000000     0.0436972  
H49      H      0.138330000000     0.405010000000     0.168240000000     0.0438828  
H50      H      0.104550000000     0.344920000000     0.169440000000     0.0441218  
H51      H      0.953380000000     0.403270000000     0.954110000000     0.0436255  
H52      H      0.953510000000     0.341740000000     0.952490000000     0.0438264  
H53      H      0.998540000000     0.330000000000     0.993220000000     0.0442208  
H54      H      0.998390000000     0.414620000000     0.995440000000     0.0442441  
H55      H      0.046650000000     0.403600000000     0.975600000000     0.0440426  
H56      H      0.043570000000     0.341380000000     0.034540000000     0.0435831  
H57      H      0.950120000000     0.403160000000     0.014650000000     0.0442076  
H58      H      0.950250000000     0.341040000000     0.013020000000     0.0441324  
H59      H      0.046810000000     0.341460000000     0.973990000000     0.0441179  
H60      H      0.043420000000     0.402890000000     0.036130000000     0.0437712  
H61      H      0.794710000000     0.356410000000     0.411060000000     0.0412716  
H62      H      0.793730000000     0.407190000000     0.481320000000     0.0458668  
H63      H      0.746870000000     0.404780000000     0.527490000000     0.0445479  
H64      H      0.746830000000     0.342980000000     0.412020000000     0.0444674  
H65      H      0.700230000000     0.367310000000     0.402230000000     0.0453301  
H66      H      0.700630000000     0.381740000000     0.536160000000     0.0463335  
H67      H      0.792810000000     0.339340000000     0.461390000000     0.0455322  
H68      H      0.793750000000     0.390170000000     0.531870000000     0.0414846  
H69      H      0.699590000000     0.405630000000     0.498370000000     0.0413902  
H70      H      0.699330000000     0.343040000000     0.439090000000     0.0410905  
H71      H      0.635300000000     0.542470000000     0.544780000000     0.0438078  
H72      H      0.638560000000     0.545550000000     0.421620000000     0.0436859  
H73      H      0.623250000000     0.498980000000     0.393050000000     0.0442613  
H74      H      0.618790000000     0.495840000000     0.561750000000     0.0442304  
H75      H      0.634020000000     0.449690000000     0.537900000000     0.0441468  
H76      H      0.606790000000     0.451330000000     0.411440000000     0.0434657  
H77      H      0.604850000000     0.543050000000     0.541650000000     0.0444773  
H78      H      0.608120000000     0.546140000000     0.418430000000     0.0435552  
H79      H      0.637240000000     0.451080000000     0.414250000000     0.0436883  
H80      H      0.603580000000     0.449910000000     0.534410000000     0.0443731  
H81      H      0.701660000000     0.375920000000     0.902010000000     0.0453501  
H82      H      0.701210000000     0.339970000000     0.001730000000     0.0404901  
H83      H      0.748570000000     0.341160000000     0.029810000000     0.044356   
H84      H      0.748420000000     0.400510000000     0.909290000000     0.0444982  
H85      H      0.796360000000     0.387120000000     0.909370000000     0.0411016  
H86      H      0.795440000000     0.355520000000     0.032520000000     0.0413828  
H87      H      0.700970000000     0.401060000000     0.936480000000     0.0409441  
H88      H      0.702550000000     0.364740000000     0.037130000000     0.0464214  
H89      H      0.795340000000     0.337660000000     0.983140000000     0.0458615  
H90      H      0.794470000000     0.405090000000     0.958430000000     0.0456844  
H91      H      0.639860000000     0.542480000000     0.052510000000     0.0436606  
H92      H      0.639550000000     0.545080000000     0.929270000000     0.0438355  
H93      H      0.623440000000     0.498540000000     0.902790000000     0.0441974  
H94      H      0.624960000000     0.495250000000     0.071690000000     0.0443559  
H95      H      0.640060000000     0.448760000000     0.044470000000     0.0441888  
H96      H      0.607690000000     0.451320000000     0.923060000000     0.0442365  
H97      H      0.609360000000     0.542420000000     0.052910000000     0.0444686  
H98      H      0.609050000000     0.545200000000     0.929360000000     0.043596   
H99      H      0.638160000000     0.451000000000     0.921100000000     0.0434898  
H100     H      0.609580000000     0.448900000000     0.046420000000     0.0437589  
H101     H      0.450390000000     0.638330000000     0.561930000000     0.0438694  
H102     H      0.450480000000     0.635570000000     0.438460000000     0.0437367  
H103     H      0.497060000000     0.620410000000     0.416750000000     0.0441966  
H104     H      0.497820000000     0.623700000000     0.585700000000     0.0443054  
H105     H      0.544870000000     0.638630000000     0.560540000000     0.0436478  
H106     H      0.543870000000     0.606110000000     0.439090000000     0.0443474  
H107     H      0.450540000000     0.607870000000     0.564600000000     0.0434622  
H108     H      0.450710000000     0.605110000000     0.441290000000     0.0444724  
H109     H      0.543630000000     0.636590000000     0.437180000000     0.0437929  
H110     H      0.545030000000     0.608150000000     0.562580000000     0.0436823  
H111     H      0.545260000000     0.604440000000     0.055570000000     0.0442431  
H112     H      0.545530000000     0.608420000000     0.932480000000     0.0435824  
H113     H      0.498360000000     0.624730000000     0.911790000000     0.0443705  
H114     H      0.498890000000     0.619660000000     0.080560000000     0.0441938  
H115     H      0.452030000000     0.605820000000     0.057360000000     0.0443857  
H116     H      0.451370000000     0.639670000000     0.937380000000     0.0437134  
H117     H      0.545570000000     0.634860000000     0.059700000000     0.0438118  
H118     H      0.545780000000     0.638850000000     0.936270000000     0.0439085  
H119     H      0.451060000000     0.609230000000     0.933930000000     0.043697   
H120     H      0.452410000000     0.636260000000     0.060570000000     0.0437881  
H121     H      0.200610000000     0.405260000000     0.527080000000     0.0457512  
H122     H      0.198810000000     0.355810000000     0.452610000000     0.0413385  
H123     H      0.245910000000     0.341960000000     0.451820000000     0.0443556  
H124     H      0.247520000000     0.400990000000     0.572920000000     0.0444782  
H125     H      0.294540000000     0.401980000000     0.542660000000     0.0409717  
H126     H      0.293670000000     0.341070000000     0.476730000000     0.0405849  
H127     H      0.199830000000     0.387140000000     0.576040000000     0.0410101  
H128     H      0.200040000000     0.337870000000     0.501820000000     0.0457157  
H129     H      0.291790000000     0.366040000000     0.441940000000     0.046196   
H130     H      0.294390000000     0.376830000000     0.577100000000     0.0455101  
H131     H      0.542210000000     0.386580000000     0.422930000000     0.0446039  
H132     H      0.544950000000     0.385080000000     0.546510000000     0.0435494  
H133     H      0.498550000000     0.370040000000     0.572220000000     0.0442187  
H134     H      0.495030000000     0.370920000000     0.403320000000     0.0442747  
H135     H      0.448540000000     0.385660000000     0.429770000000     0.04365    
H136     H      0.451110000000     0.355400000000     0.553480000000     0.0435565  
H137     H      0.542550000000     0.356110000000     0.421570000000     0.0434713  
H138     H      0.545090000000     0.354600000000     0.544720000000     0.043949   
H139     H      0.451410000000     0.385880000000     0.553320000000     0.0444045  
H140     H      0.448440000000     0.355170000000     0.430250000000     0.0439242  
H141     H      0.355040000000     0.543750000000     0.433560000000     0.0437665  
H142     H      0.359270000000     0.543460000000     0.556800000000     0.04385    
H143     H      0.375340000000     0.496990000000     0.577530000000     0.0441772  
H144     H      0.369410000000     0.496440000000     0.408870000000     0.0443505  
H145     H      0.354950000000     0.449350000000     0.434870000000     0.0438489  
H146     H      0.389790000000     0.450290000000     0.553690000000     0.044214   
H147     H      0.385470000000     0.543780000000     0.429420000000     0.0436184  
H148     H      0.389700000000     0.543520000000     0.552630000000     0.044409   
H149     H      0.359380000000     0.450380000000     0.558160000000     0.0438311  
H150     H      0.385370000000     0.449230000000     0.430620000000     0.0436856  
H151     H      0.201390000000     0.390790000000     0.957160000000     0.0415554  
H152     H      0.202610000000     0.339580000000     0.026640000000     0.0454793  
H153     H      0.248770000000     0.343000000000     0.075330000000     0.044423   
H154     H      0.248200000000     0.405470000000     0.961310000000     0.04454    
H155     H      0.294360000000     0.382590000000     0.951310000000     0.0464236  
H156     H      0.295460000000     0.367290000000     0.084840000000     0.0452879  
H157     H      0.201480000000     0.407530000000     0.008080000000     0.0458856  
H158     H      0.200810000000     0.356420000000     0.077280000000     0.0412604  
H159     H      0.296150000000     0.343240000000     0.047400000000     0.0410763  
H160     H      0.295600000000     0.406200000000     0.989750000000     0.041478   
H161     H      0.547130000000     0.355970000000     0.048710000000     0.0440179  
H162     H      0.543630000000     0.356570000000     0.925420000000     0.0435511  
H163     H      0.495980000000     0.371210000000     0.908340000000     0.0442145  
H164     H      0.500840000000     0.371430000000     0.077120000000     0.0442885  
H165     H      0.453300000000     0.356440000000     0.060180000000     0.0434701  
H166     H      0.449670000000     0.386000000000     0.935920000000     0.043585   
H167     H      0.547040000000     0.386460000000     0.049390000000     0.0436828  
H168     H      0.543380000000     0.387050000000     0.926080000000     0.0442841  
H169     H      0.449700000000     0.355520000000     0.937110000000     0.043948   
H170     H      0.453450000000     0.386920000000     0.059400000000     0.0445791  
H171     H      0.388020000000     0.545520000000     0.073840000000     0.0435565  
H172     H      0.391010000000     0.544000000000     0.950530000000     0.0444581  
H173     H      0.376610000000     0.497140000000     0.928090000000     0.0441924  
H174     H      0.372750000000     0.498210000000     0.096980000000     0.0443329  
H175     H      0.388920000000     0.450780000000     0.075990000000     0.0435595  
H176     H      0.361070000000     0.450780000000     0.950030000000     0.0440373  
H177     H      0.357560000000     0.545130000000     0.070920000000     0.043824   
H178     H      0.360550000000     0.543640000000     0.947570000000     0.0437414  
H179     H      0.391540000000     0.450760000000     0.952880000000     0.0442599  
H180     H      0.358440000000     0.450740000000     0.073720000000     0.043723   
H181     H      0.655350000000     0.793250000000     0.524630000000     0.0456875  
H182     H      0.604150000000     0.795360000000     0.454780000000     0.0415864  
H183     H      0.590440000000     0.748240000000     0.453830000000     0.0445376  
H184     H      0.652650000000     0.745890000000     0.568360000000     0.0444767  
H185     H      0.653310000000     0.699260000000     0.535550000000     0.0410715  
H186     H      0.590490000000     0.700230000000     0.477210000000     0.0416019  
H187     H      0.638290000000     0.793430000000     0.575120000000     0.0412271  
H188     H      0.587420000000     0.793630000000     0.505600000000     0.0457148  
H189     H      0.614320000000     0.702690000000     0.439520000000     0.0461368  
H190     H      0.629260000000     0.698730000000     0.573000000000     0.0454993  
H191     H      0.654250000000     0.700140000000     0.976320000000     0.0405345  
H192     H      0.618830000000     0.699160000000     0.077110000000     0.0454939  
H193     H      0.594230000000     0.745800000000     0.073180000000     0.0444578  
H194     H      0.652920000000     0.747890000000     0.951430000000     0.0444041  
H195     H      0.656790000000     0.793760000000     0.001430000000     0.0458323  
H196     H      0.589450000000     0.792670000000     0.027320000000     0.0457022  
H197     H      0.629170000000     0.701830000000     0.941810000000     0.0461902  
H198     H      0.593540000000     0.698810000000     0.043010000000     0.0409377  
H199     H      0.607670000000     0.793560000000     0.076150000000     0.0410025  
H200     H      0.638700000000     0.794880000000     0.952430000000     0.0413231  
H201     H      0.589860000000     0.854600000000     0.857630000000     0.0437201  
H202     H      0.651510000000     0.858110000000     0.856480000000     0.0436109  
H203     H      0.661810000000     0.874720000000     0.763830000000     0.0442089  
H204     H      0.577290000000     0.870010000000     0.763800000000     0.0443269  
H205     H      0.589620000000     0.856250000000     0.669150000000     0.0439062  
H206     H      0.649720000000     0.890040000000     0.671000000000     0.0441289  
H207     H      0.588040000000     0.885020000000     0.858610000000     0.0436832  
H208     H      0.649870000000     0.888550000000     0.857420000000     0.0443399  
H209     H      0.651530000000     0.859600000000     0.670340000000     0.0439884  
H210     H      0.588120000000     0.886690000000     0.669870000000     0.0436375  
H211     H      0.592740000000     0.857470000000     0.356680000000     0.0434762  
H212     H      0.654370000000     0.854190000000     0.357910000000     0.0436735  
H213     H      0.666930000000     0.869430000000     0.263880000000     0.044309   
H214     H      0.582390000000     0.873810000000     0.263770000000     0.0440859  
H215     H      0.592800000000     0.858580000000     0.170320000000     0.0438512  
H216     H      0.656100000000     0.885900000000     0.169900000000     0.0436186  
H217     H      0.594240000000     0.887920000000     0.357160000000     0.0442842  
H218     H      0.656120000000     0.884630000000     0.358440000000     0.0436726  
H219     H      0.654640000000     0.855450000000     0.169190000000     0.0437651  
H220     H      0.594420000000     0.889020000000     0.170990000000     0.0441478  
H221     H      0.591330000000     0.294380000000     0.452360000000     0.0415914  
H222     H      0.630610000000     0.294810000000     0.547830000000     0.0458861  
H223     H      0.653860000000     0.247950000000     0.540970000000     0.0446412  
H224     H      0.591050000000     0.246580000000     0.427690000000     0.0446006  
H225     H      0.588090000000     0.200940000000     0.478740000000     0.0457264  
H226     H      0.656140000000     0.200810000000     0.495960000000     0.0458007  
H227     H      0.615130000000     0.292480000000     0.414450000000     0.0457747  
H228     H      0.654390000000     0.294850000000     0.509690000000     0.0410891  
H229     H      0.639500000000     0.200640000000     0.547010000000     0.0413416  
H230     H      0.604550000000     0.199170000000     0.427560000000     0.0413652  
H231     H      0.653540000000     0.951600000000     0.537810000000     0.0436322  
H232     H      0.591970000000     0.951730000000     0.540090000000     0.0437909  
H233     H      0.580150000000     0.997180000000     0.501910000000     0.0442176  
H234     H      0.664780000000     0.997090000000     0.498440000000     0.0442313  
H235     H      0.653820000000     0.045110000000     0.520780000000     0.0440688  
H236     H      0.591300000000     0.042690000000     0.462860000000     0.0436227  
H237     H      0.653240000000     0.949020000000     0.477130000000     0.0440855  
H238     H      0.591140000000     0.949180000000     0.479430000000     0.0440791  
H239     H      0.591660000000     0.045100000000     0.523570000000     0.0442141  
H240     H      0.652800000000     0.042670000000     0.460110000000     0.0437317  
H241     H      0.655620000000     0.294220000000     0.003520000000     0.0404518  
H242     H      0.618120000000     0.292590000000     0.906250000000     0.0453193  
H243     H      0.593170000000     0.246220000000     0.918070000000     0.0445854  
H244     H      0.654420000000     0.247350000000     0.034730000000     0.0443666  
H245     H      0.656710000000     0.199840000000     0.990970000000     0.0459014  
H246     H      0.588910000000     0.201080000000     0.970500000000     0.0455878  
H247     H      0.631430000000     0.293650000000     0.040600000000     0.0464685  
H248     H      0.593510000000     0.294050000000     0.942160000000     0.040932   
H249     H      0.606040000000     0.198190000000     0.920430000000     0.0411303  
H250     H      0.639610000000     0.200750000000     0.041390000000     0.0412606  
H251     H      0.591700000000     0.103820000000     0.831860000000     0.0440833  
H252     H      0.653250000000     0.104500000000     0.831730000000     0.0434634  
H253     H      0.664420000000     0.120700000000     0.738290000000     0.0442783  
H254     H      0.579770000000     0.120620000000     0.738990000000     0.0442115  
H255     H      0.590750000000     0.107070000000     0.644210000000     0.0436332  
H256     H      0.652910000000     0.136960000000     0.645570000000     0.0435521  
H257     H      0.591050000000     0.134300000000     0.833040000000     0.043792   
H258     H      0.653170000000     0.134990000000     0.832650000000     0.0441616  
H259     H      0.652720000000     0.106490000000     0.644030000000     0.044421   
H260     H      0.591200000000     0.137550000000     0.646030000000     0.0438505  
H261     H      0.591020000000     0.140270000000     0.145550000000     0.0436715  
H262     H      0.652560000000     0.139580000000     0.144670000000     0.0432785  
H263     H      0.664320000000     0.123750000000     0.237860000000     0.0441447  
H264     H      0.579670000000     0.123650000000     0.239260000000     0.0441867  
H265     H      0.591230000000     0.137360000000     0.333560000000     0.0435709  
H266     H      0.653490000000     0.107690000000     0.331140000000     0.0435088  
H267     H      0.590350000000     0.109790000000     0.144840000000     0.0436394  
H268     H      0.652490000000     0.109100000000     0.144290000000     0.0445383  
H269     H      0.653140000000     0.138170000000     0.332640000000     0.0439554  
H270     H      0.591730000000     0.106890000000     0.331750000000     0.0442471  
H271     H      0.590720000000     0.044920000000     0.027830000000     0.044056   
H272     H      0.652660000000     0.044840000000     0.026250000000     0.0439928  
H273     H      0.663810000000     0.996950000000     0.003150000000     0.0443338  
H274     H      0.579170000000     0.996910000000     0.004460000000     0.0442288  
H275     H      0.590830000000     0.951010000000     0.041270000000     0.0435434  
H276     H      0.652600000000     0.949210000000     0.980150000000     0.0440153  
H277     H      0.590420000000     0.042640000000     0.967100000000     0.0437178  
H278     H      0.652150000000     0.042500000000     0.965540000000     0.0440403  
H279     H      0.652410000000     0.951210000000     0.040920000000     0.0439339  
H280     H      0.590500000000     0.949080000000     0.980500000000     0.0441524  
H281     H      0.294470000000     0.590150000000     0.521960000000     0.0414873  
H282     H      0.294030000000     0.628570000000     0.425760000000     0.0455395  
H283     H      0.247690000000     0.653130000000     0.435570000000     0.0445306  
H284     H      0.247230000000     0.591290000000     0.550990000000     0.0445482  
H285     H      0.200450000000     0.589150000000     0.504630000000     0.045872   
H286     H      0.201710000000     0.657000000000     0.484780000000     0.0455285  
H287     H      0.293660000000     0.614090000000     0.559670000000     0.046144   
H288     H      0.295150000000     0.652770000000     0.462800000000     0.0411094  
H289     H      0.199810000000     0.639940000000     0.434410000000     0.0413193  
H290     H      0.200430000000     0.606160000000     0.555200000000     0.0413752  
H291     H      0.295110000000     0.613560000000     0.942120000000     0.0462865  
H292     H      0.296200000000     0.653180000000     0.037720000000     0.0411237  
H293     H      0.248620000000     0.653690000000     0.064060000000     0.0445257  
H294     H      0.248790000000     0.590910000000     0.950690000000     0.0445432  
H295     H      0.202100000000     0.605810000000     0.944760000000     0.0414326  
H296     H      0.200670000000     0.640450000000     0.064550000000     0.0413741  
H297     H      0.295890000000     0.590040000000     0.980850000000     0.0414729  
H298     H      0.295060000000     0.629270000000     0.075490000000     0.0453944  
H299     H      0.202940000000     0.657150000000     0.013770000000     0.0454904  
H300     H      0.201720000000     0.589160000000     0.995800000000     0.0458723  
H301     H      0.139600000000     0.594710000000     0.842040000000     0.0435244  
H302     H      0.142900000000     0.656240000000     0.843270000000     0.0435598  
H303     H      0.127790000000     0.668820000000     0.749010000000     0.0442445  
H304     H      0.123170000000     0.584320000000     0.748950000000     0.0440794  
H305     H      0.138200000000     0.594710000000     0.655120000000     0.0436287  
H306     H      0.111240000000     0.658160000000     0.655310000000     0.0436367  
H307     H      0.109130000000     0.596140000000     0.842190000000     0.0443338  
H308     H      0.112470000000     0.658080000000     0.843410000000     0.0437297  
H309     H      0.141670000000     0.656370000000     0.654010000000     0.0436886  
H310     H      0.107760000000     0.596370000000     0.656480000000     0.0443064  
H311     H      0.107470000000     0.590250000000     0.154230000000     0.0436113  
H312     H      0.104460000000     0.651860000000     0.155190000000     0.0441729  
H313     H      0.118710000000     0.663880000000     0.248870000000     0.0442185  
H314     H      0.122870000000     0.579350000000     0.249060000000     0.0443245  
H315     H      0.106850000000     0.590330000000     0.343440000000     0.0435869  
H316     H      0.134300000000     0.653570000000     0.341930000000     0.0439244  
H317     H      0.137930000000     0.591590000000     0.155260000000     0.0438446  
H318     H      0.134910000000     0.653480000000     0.156250000000     0.0439658  
H319     H      0.103840000000     0.651930000000     0.342230000000     0.0440822  
H320     H      0.137310000000     0.591660000000     0.343170000000     0.04392    
H321     H      0.792970000000     0.657410000000     0.484330000000     0.0454906  
H322     H      0.794040000000     0.604990000000     0.550010000000     0.041442   
H323     H      0.747410000000     0.590030000000     0.543260000000     0.044559   
H324     H      0.747280000000     0.654580000000     0.433910000000     0.0445537  
H325     H      0.699720000000     0.653470000000     0.460290000000     0.041145   
H326     H      0.700290000000     0.589470000000     0.513190000000     0.0415019  
H327     H      0.795280000000     0.641540000000     0.432500000000     0.0413718  
H328     H      0.794460000000     0.589170000000     0.497930000000     0.0458671  
H329     H      0.701020000000     0.612370000000     0.553390000000     0.0463522  
H330     H      0.700920000000     0.630160000000     0.421060000000     0.0453692  
H331     H      0.044100000000     0.594090000000     0.471350000000     0.0441424  
H332     H      0.044290000000     0.656050000000     0.473410000000     0.043891   
H333     H      0.997420000000     0.667230000000     0.504300000000     0.0442706  
H334     H      0.997350000000     0.582610000000     0.501160000000     0.0442709  
H335     H      0.950740000000     0.594250000000     0.470490000000     0.044164   
H336     H      0.950210000000     0.655430000000     0.533930000000     0.0438097  
H337     H      0.044310000000     0.593730000000     0.532250000000     0.0438644  
H338     H      0.044520000000     0.655410000000     0.534300000000     0.0437995  
H339     H      0.950620000000     0.656210000000     0.473050000000     0.0439026  
H340     H      0.950300000000     0.593760000000     0.531390000000     0.0437943  
H341     H      0.794900000000     0.658240000000     0.991890000000     0.0457309  
H342     H      0.796770000000     0.608080000000     0.063580000000     0.0411509  
H343     H      0.749190000000     0.593920000000     0.063340000000     0.044666   
H344     H      0.748130000000     0.654360000000     0.944990000000     0.0443396  
H345     H      0.700800000000     0.654430000000     0.973270000000     0.0404649  
H346     H      0.701780000000     0.592810000000     0.036510000000     0.0410479  
H347     H      0.795280000000     0.640920000000     0.941740000000     0.0411702  
H348     H      0.795140000000     0.590560000000     0.013830000000     0.045862   
H349     H      0.702210000000     0.617620000000     0.071930000000     0.0456356  
H350     H      0.702410000000     0.629910000000     0.937190000000     0.0461345  
H351     H      0.854960000000     0.593520000000     0.652840000000     0.0433223  
H352     H      0.854050000000     0.655120000000     0.653570000000     0.0437598  
H353     H      0.870000000000     0.666560000000     0.747610000000     0.0442126  
H354     H      0.870240000000     0.581940000000     0.746550000000     0.0441752  
H355     H      0.855240000000     0.593270000000     0.841230000000     0.0438234  
H356     H      0.886280000000     0.654790000000     0.840240000000     0.0444243  
H357     H      0.885450000000     0.593780000000     0.653260000000     0.0444201  
H358     H      0.884540000000     0.655820000000     0.653670000000     0.0436605  
H359     H      0.855800000000     0.654960000000     0.841830000000     0.0434066  
H360     H      0.885730000000     0.592830000000     0.839960000000     0.0435927  
H361     H      0.859730000000     0.655220000000     0.340550000000     0.0436829  
H362     H      0.859560000000     0.593290000000     0.339840000000     0.0440324  
H363     H      0.875800000000     0.582180000000     0.246560000000     0.0442517  
H364     H      0.875140000000     0.666810000000     0.247580000000     0.0442867  
H365     H      0.860060000000     0.655490000000     0.153670000000     0.0440791  
H366     H      0.891670000000     0.594250000000     0.153170000000     0.0441831  
H367     H      0.890220000000     0.655010000000     0.341590000000     0.0441977  
H368     H      0.890060000000     0.593280000000     0.341160000000     0.043519   
H369     H      0.861180000000     0.593490000000     0.153080000000     0.0437765  
H370     H      0.890550000000     0.655890000000     0.153500000000     0.0434787  
H371     H      0.045350000000     0.655320000000     0.024510000000     0.0438286  
H372     H      0.045230000000     0.593360000000     0.023850000000     0.044192   
H373     H      0.998670000000     0.582130000000     0.991890000000     0.044222   
H374     H      0.998690000000     0.666770000000     0.993560000000     0.0442311  
H375     H      0.951850000000     0.655230000000     0.023550000000     0.0442094  
H376     H      0.951710000000     0.593860000000     0.960860000000     0.0438312  
H377     H      0.045920000000     0.655340000000     0.963610000000     0.0438842  
H378     H      0.045870000000     0.593640000000     0.962960000000     0.0436989  
H379     H      0.951840000000     0.593210000000     0.021760000000     0.0439635  
H380     H      0.951670000000     0.655480000000     0.962640000000     0.0437211  
H381     H      0.339110000000     0.294240000000     0.475600000000     0.0404439  
H382     H      0.376030000000     0.293360000000     0.574010000000     0.0455086  
H383     H      0.400300000000     0.246610000000     0.565460000000     0.044589   
H384     H      0.339710000000     0.246900000000     0.447370000000     0.0443596  
H385     H      0.336420000000     0.200150000000     0.494300000000     0.0458056  
H386     H      0.404130000000     0.200660000000     0.515980000000     0.04578    
H387     H      0.363580000000     0.292850000000     0.439320000000     0.0462521  
H388     H      0.400830000000     0.294010000000     0.538550000000     0.040994   
H389     H      0.386700000000     0.198860000000     0.565840000000     0.041138   
H390     H      0.353730000000     0.199930000000     0.444120000000     0.0411975  
H391     H      0.340700000000     0.295640000000     0.974280000000     0.0410732  
H392     H      0.380680000000     0.293110000000     0.068630000000     0.046019   
H393     H      0.403820000000     0.246940000000     0.055910000000     0.0446555  
H394     H      0.340290000000     0.248550000000     0.944210000000     0.0445465  
H395     H      0.337560000000     0.201790000000     0.990730000000     0.0456249  
H396     H      0.405700000000     0.200950000000     0.006390000000     0.045815   
H397     H      0.364290000000     0.295130000000     0.935660000000     0.0456494  
H398     H      0.404150000000     0.294540000000     0.029830000000     0.0415981  
H399     H      0.389510000000     0.199920000000     0.057990000000     0.0414584  
H400     H      0.353890000000     0.200870000000     0.939310000000     0.0412698  
H401     H      0.339630000000     0.135740000000     0.656640000000     0.0440349  
H402     H      0.401650000000     0.134820000000     0.656000000000     0.0437271  
H403     H      0.413040000000     0.120480000000     0.749680000000     0.044222   
H404     H      0.328380000000     0.120890000000     0.750770000000     0.0442575  
H405     H      0.340010000000     0.136520000000     0.843710000000     0.0436013  
H406     H      0.402040000000     0.106360000000     0.844260000000     0.0435806  
H407     H      0.339340000000     0.105250000000     0.656910000000     0.0434825  
H408     H      0.401000000000     0.104340000000     0.656530000000     0.0441439  
H409     H      0.401850000000     0.136850000000     0.842980000000     0.0439187  
H410     H      0.340200000000     0.106040000000     0.844720000000     0.0442783  
H411     H      0.339960000000     0.139760000000     0.156580000000     0.0439084  
H412     H      0.401690000000     0.138890000000     0.155880000000     0.0434311  
H413     H      0.413220000000     0.124120000000     0.249750000000     0.0441872  
H414     H      0.328560000000     0.124260000000     0.250760000000     0.0442012  
H415     H      0.340140000000     0.138990000000     0.344610000000     0.0433763  
H416     H      0.402340000000     0.109180000000     0.343520000000     0.0435905  
H417     H      0.339400000000     0.109280000000     0.156990000000     0.0436489  
H418     H      0.401330000000     0.108410000000     0.156630000000     0.0443615  
H419     H      0.401830000000     0.139670000000     0.344010000000     0.043817   
H420     H      0.340350000000     0.108510000000     0.343780000000     0.0444422  
H421     H      0.404440000000     0.699450000000     0.473480000000     0.041448   
H422     H      0.366040000000     0.700070000000     0.569710000000     0.0455141  
H423     H      0.341830000000     0.746620000000     0.560110000000     0.0445411  
H424     H      0.403690000000     0.746730000000     0.444690000000     0.0444921  
H425     H      0.406160000000     0.793480000000     0.491250000000     0.0458382  
H426     H      0.338290000000     0.792640000000     0.511060000000     0.0455912  
H427     H      0.380500000000     0.700520000000     0.435790000000     0.0461045  
H428     H      0.341820000000     0.699200000000     0.532690000000     0.0410657  
H429     H      0.355360000000     0.794410000000     0.561420000000     0.0413273  
H430     H      0.389170000000     0.793630000000     0.440650000000     0.0413841  
H431     H      0.401640000000     0.044000000000     0.464280000000     0.0438788  
H432     H      0.339900000000     0.043900000000     0.466020000000     0.0438043  
H433     H      0.328740000000     0.996660000000     0.495200000000     0.0442723  
H434     H      0.413400000000     0.996820000000     0.493590000000     0.0441732  
H435     H      0.401930000000     0.949890000000     0.462850000000     0.0436239  
H436     H      0.340220000000     0.949750000000     0.524360000000     0.0438593  
H437     H      0.402180000000     0.043430000000     0.525160000000     0.0438337  
H438     H      0.340240000000     0.043270000000     0.526910000000     0.0441237  
H439     H      0.340250000000     0.949770000000     0.463460000000     0.0439064  
H440     H      0.402230000000     0.949930000000     0.523750000000     0.04414    
H441     H      0.366550000000     0.700300000000     0.928090000000     0.0454693  
H442     H      0.405250000000     0.700650000000     0.023830000000     0.0415505  
H443     H      0.404380000000     0.748140000000     0.051120000000     0.044559   
H444     H      0.342210000000     0.746870000000     0.936410000000     0.0444961  
H445     H      0.355600000000     0.794740000000     0.933460000000     0.0413005  
H446     H      0.389680000000     0.794960000000     0.053930000000     0.0414861  
H447     H      0.342450000000     0.699670000000     0.965430000000     0.0410582  
H448     H      0.381430000000     0.701960000000     0.061790000000     0.0461721  
H449     H      0.406530000000     0.794530000000     0.003140000000     0.0458749  
H450     H      0.338610000000     0.793260000000     0.983980000000     0.0455452  
H451     H      0.405210000000     0.887950000000     0.841450000000     0.0435725  
H452     H      0.343580000000     0.890860000000     0.840210000000     0.0441472  
H453     H      0.331670000000     0.875990000000     0.746890000000     0.0442555  
H454     H      0.416230000000     0.871940000000     0.747100000000     0.0442876  
H455     H      0.405330000000     0.887330000000     0.652330000000     0.0436046  
H456     H      0.342110000000     0.859840000000     0.654220000000     0.0439158  
H457     H      0.403920000000     0.857500000000     0.841250000000     0.043862   
H458     H      0.342000000000     0.860410000000     0.839970000000     0.0439711  
H459     H      0.343660000000     0.890290000000     0.653300000000     0.044177   
H460     H      0.403980000000     0.856880000000     0.653230000000     0.0438192  
H461     H      0.400860000000     0.857200000000     0.153350000000     0.0436098  
H462     H      0.339200000000     0.853610000000     0.152260000000     0.043731   
H463     H      0.326700000000     0.867780000000     0.247040000000     0.0442619  
H464     H      0.411210000000     0.872580000000     0.246950000000     0.044099   
H465     H      0.400880000000     0.856420000000     0.340160000000     0.0436001  
H466     H      0.337440000000     0.883410000000     0.341330000000     0.0437014  
H467     H      0.399150000000     0.887640000000     0.154270000000     0.0442783  
H468     H      0.337340000000     0.884030000000     0.153120000000     0.0436682  
H469     H      0.339270000000     0.852980000000     0.341410000000     0.043574   
H470     H      0.399320000000     0.886870000000     0.340080000000     0.0443245  
H471     H      0.401020000000     0.044540000000     0.970470000000     0.0440695  
H472     H      0.339090000000     0.044560000000     0.973110000000     0.0438307  
H473     H      0.328110000000     0.997510000000     0.003160000000     0.0442942  
H474     H      0.412750000000     0.997710000000     0.999910000000     0.0442121  
H475     H      0.401280000000     0.951060000000     0.969070000000     0.0440631  
H476     H      0.339970000000     0.950310000000     0.032080000000     0.0438495  
H477     H      0.401570000000     0.044500000000     0.031370000000     0.0438108  
H478     H      0.339850000000     0.044490000000     0.034000000000     0.0438316  
H479     H      0.339370000000     0.950780000000     0.971190000000     0.0438338  
H480     H      0.401730000000     0.950620000000     0.029960000000     0.0438832  
N1       N      0.875140000000     0.369910000000     0.840560000000    -0.166494   
N2       N      0.870600000000     0.370410000000     0.611260000000    -0.166469   
N3       N      0.873530000000     0.374730000000     0.340630000000    -0.166413   
N4       N      0.871780000000     0.374320000000     0.111160000000    -0.166434   
N5       N      0.053860000000     0.372440000000     0.508260000000    -0.166237   
N6       N      0.939690000000     0.372420000000     0.481690000000    -0.166346   
N7       N      0.124950000000     0.370490000000     0.877280000000    -0.16649    
N8       N      0.120880000000     0.370020000000     0.647950000000    -0.166458   
N9       N      0.121520000000     0.374790000000     0.147870000000    -0.166493   
N10      N      0.122630000000     0.374410000000     0.377310000000    -0.166506   
N11      N      0.055600000000     0.372350000000     0.006770000000    -0.166255   
N12      N      0.941330000000     0.372300000000     0.981820000000    -0.166209   
N13      N      0.689470000000     0.374260000000     0.469370000000    -0.166351   
N14      N      0.804220000000     0.373080000000     0.472040000000    -0.166402   
N15      N      0.620480000000     0.439980000000     0.474060000000    -0.166264   
N16      N      0.621870000000     0.554800000000     0.482730000000    -0.166252   
N17      N      0.805870000000     0.371570000000     0.971520000000    -0.166418   
N18      N      0.691130000000     0.370650000000     0.969900000000    -0.166367   
N19      N      0.623780000000     0.439500000000     0.983000000000    -0.166371   
N20      N      0.624400000000     0.554290000000     0.991910000000    -0.166439   
N21      N      0.554840000000     0.622400000000     0.499410000000    -0.166708   
N22      N      0.440040000000     0.621690000000     0.501510000000    -0.166605   
N23      N      0.441230000000     0.622810000000     0.997680000000    -0.166637   
N24      N      0.556030000000     0.621620000000     0.996100000000    -0.166832   
N25      N      0.304050000000     0.371660000000     0.508640000000    -0.166366   
N26      N      0.189360000000     0.371640000000     0.514490000000    -0.166432   
N27      N      0.439370000000     0.370670000000     0.492620000000    -0.166467   
N28      N      0.554200000000     0.370780000000     0.483070000000    -0.166259   
N29      N      0.372310000000     0.439320000000     0.494730000000    -0.16675    
N30      N      0.372350000000     0.554120000000     0.493220000000    -0.166501   
N31      N      0.305870000000     0.374640000000     0.017660000000    -0.16617    
N32      N      0.191100000000     0.373340000000     0.016710000000    -0.166262   
N33      N      0.441030000000     0.371340000000     0.999390000000    -0.166251   
N34      N      0.555800000000     0.371590000000     0.986200000000    -0.16638    
N35      N      0.374870000000     0.440270000000     0.013120000000    -0.166555   
N36      N      0.374160000000     0.555070000000     0.010160000000    -0.166601   
N37      N      0.622090000000     0.689780000000     0.504860000000    -0.166339   
N38      N      0.621400000000     0.804390000000     0.515400000000    -0.166324   
N39      N      0.622970000000     0.804180000000     0.014500000000    -0.166597   
N40      N      0.623840000000     0.689540000000     0.008590000000    -0.166522   
N41      N      0.619860000000     0.873140000000     0.649110000000    -0.166522   
N42      N      0.619940000000     0.871490000000     0.878520000000    -0.166615   
N43      N      0.624390000000     0.872290000000     0.149120000000    -0.166603   
N44      N      0.624250000000     0.871080000000     0.378530000000    -0.166665   
N45      N      0.622060000000     0.189920000000     0.487750000000    -0.166358   
N46      N      0.622950000000     0.304600000000     0.480330000000    -0.166471   
N47      N      0.622380000000     0.054400000000     0.490720000000    -0.166382   
N48      N      0.622460000000     0.939890000000     0.509950000000    -0.16629    
N49      N      0.622510000000     0.189530000000     0.982130000000    -0.166589   
N50      N      0.624500000000     0.304090000000     0.973100000000    -0.166465   
N51      N      0.621860000000     0.122200000000     0.623990000000    -0.166678   
N52      N      0.622320000000     0.119460000000     0.853290000000    -0.166634   
N53      N      0.622480000000     0.122300000000     0.353250000000    -0.166621   
N54      N      0.621530000000     0.124530000000     0.123850000000    -0.166595   
N55      N      0.621620000000     0.939630000000     0.011620000000    -0.166443   
N56      N      0.621500000000     0.054210000000     0.995270000000    -0.166456   
N57      N      0.190160000000     0.623310000000     0.495320000000    -0.166732   
N58      N      0.304780000000     0.621440000000     0.492840000000    -0.166757   
N59      N      0.191420000000     0.623400000000     0.003850000000    -0.166668   
N60      N      0.306020000000     0.621650000000     0.008780000000    -0.166676   
N61      N      0.124420000000     0.626310000000     0.634250000000    -0.166461   
N62      N      0.125870000000     0.626190000000     0.863730000000    -0.166564   
N63      N      0.120760000000     0.622000000000     0.363670000000    -0.166603   
N64      N      0.121480000000     0.621900000000     0.134260000000    -0.166535   
N65      N      0.690030000000     0.621470000000     0.487300000000    -0.166608   
N66      N      0.804630000000     0.623560000000     0.492070000000    -0.166695   
N67      N      0.939980000000     0.624900000000     0.501660000000    -0.166617   
N68      N      0.054790000000     0.624790000000     0.502440000000    -0.16662    
N69      N      0.691370000000     0.623350000000     0.004380000000    -0.166812   
N70      N      0.805960000000     0.624380000000     0.002050000000    -0.166773   
N71      N      0.871130000000     0.623910000000     0.861790000000    -0.166532   
N72      N      0.869980000000     0.624620000000     0.632350000000    -0.166545   
N73      N      0.875700000000     0.624830000000     0.132390000000    -0.166674   
N74      N      0.874600000000     0.624140000000     0.361740000000    -0.166617   
N75      N      0.941280000000     0.624440000000     0.992650000000    -0.166721   
N76      N      0.056080000000     0.624400000000     0.994380000000    -0.166655   
N77      N      0.370400000000     0.189460000000     0.504410000000    -0.166824   
N78      N      0.370150000000     0.304050000000     0.506430000000    -0.16669    
N79      N      0.371510000000     0.190430000000     0.998560000000    -0.166591   
N80      N      0.372440000000     0.305050000000     0.002810000000    -0.166591   
N81      N      0.371080000000     0.121640000000     0.864880000000    -0.166756   
N82      N      0.370350000000     0.120120000000     0.635560000000    -0.166736   
N83      N      0.371210000000     0.123840000000     0.364950000000    -0.166595   
N84      N      0.370540000000     0.123900000000     0.135550000000    -0.166627   
N85      N      0.372050000000     0.803980000000     0.500520000000    -0.166642   
N86      N      0.373070000000     0.689360000000     0.502560000000    -0.166719   
N87      N      0.371180000000     0.939350000000     0.493890000000    -0.166698   
N88      N      0.370980000000     0.054140000000     0.496180000000    -0.166752   
N89      N      0.372360000000     0.804820000000     0.993950000000    -0.166624   
N90      N      0.373820000000     0.690190000000     0.995510000000    -0.166707   
N91      N      0.373660000000     0.873350000000     0.632300000000    -0.166587   
N92      N      0.373550000000     0.874020000000     0.861690000000    -0.166575   
N93      N      0.369340000000     0.870060000000     0.361730000000    -0.16647    
N94      N      0.369230000000     0.870840000000     0.132260000000    -0.166511   
N95      N      0.370640000000     0.940200000000     0.000140000000    -0.166551   
N96      N      0.370390000000     0.055010000000     0.002100000000    -0.166611   
O1       O      0.353090000000     0.838080000000     0.990510000000    -0.396775   
O2       O      0.352080000000     0.906440000000     0.999040000000    -0.39675    
O3       O      0.353780000000     0.874100000000     0.927460000000    -0.398519   
O4       O      0.351300000000     0.870420000000     0.063910000000    -0.395486   
O5       O      0.388910000000     0.872840000000     0.066530000000    -0.399288   
O6       O      0.391440000000     0.872520000000     0.929960000000    -0.396466   
O7       O      0.389800000000     0.906860000000     0.998160000000    -0.398218   
O8       O      0.390490000000     0.838530000000     0.000040000000    -0.398686   
O9       O      0.353010000000     0.837370000000     0.503560000000    -0.397075   
O10      O      0.352470000000     0.905690000000     0.495020000000    -0.397425   
O11      O      0.351440000000     0.869690000000     0.430110000000    -0.395791   
O12      O      0.353930000000     0.873370000000     0.566520000000    -0.398866   
O13      O      0.391590000000     0.871640000000     0.564050000000    -0.39608    
O14      O      0.389070000000     0.871830000000     0.427450000000    -0.39897    
O15      O      0.390180000000     0.905900000000     0.495630000000    -0.398273   
O16      O      0.390430000000     0.837550000000     0.494110000000    -0.398158   
O17      O      0.351690000000     0.088700000000     0.002310000000    -0.396969   
O18      O      0.352320000000     0.157110000000     0.995650000000    -0.39676    
O19      O      0.352140000000     0.121570000000     0.931610000000    -0.398859   
O20      O      0.351800000000     0.124240000000     0.068160000000    -0.396398   
O21      O      0.389470000000     0.122380000000     0.068860000000    -0.398887   
O22      O      0.389830000000     0.122840000000     0.932200000000    -0.396965   
O23      O      0.389880000000     0.156770000000     0.002580000000    -0.398368   
O24      O      0.389390000000     0.088440000000     0.000210000000    -0.39855    
O25      O      0.352040000000     0.087600000000     0.499200000000    -0.398392   
O26      O      0.351890000000     0.155960000000     0.498670000000    -0.398491   
O27      O      0.352210000000     0.121990000000     0.431520000000    -0.398965   
O28      O      0.351680000000     0.121600000000     0.568170000000    -0.396934   
O29      O      0.389360000000     0.120060000000     0.568900000000    -0.398832   
O30      O      0.389880000000     0.123770000000     0.432450000000    -0.396447   
O31      O      0.389420000000     0.156060000000     0.506120000000    -0.397107   
O32      O      0.389740000000     0.087750000000     0.497180000000    -0.397618   
O33      O      0.907740000000     0.643250000000     0.995700000000    -0.398259   
O34      O      0.839360000000     0.643090000000     0.995860000000    -0.398296   
O35      O      0.873920000000     0.643470000000     0.064990000000    -0.396735   
O36      O      0.873150000000     0.642920000000     0.928340000000    -0.398814   
O37      O      0.871530000000     0.605250000000     0.929300000000    -0.396243   
O38      O      0.875630000000     0.605810000000     0.065740000000    -0.398737   
O39      O      0.839470000000     0.605560000000     0.003350000000    -0.397294   
O40      O      0.907730000000     0.605560000000     0.993680000000    -0.397873   
O41      O      0.837940000000     0.642830000000     0.491100000000    -0.397028   
O42      O      0.906270000000     0.643550000000     0.500500000000    -0.397124   
O43      O      0.874090000000     0.643080000000     0.428490000000    -0.398482   
O44      O      0.870100000000     0.643370000000     0.564960000000    -0.396239   
O45      O      0.871970000000     0.605710000000     0.565670000000    -0.3988     
O46      O      0.872910000000     0.605390000000     0.429010000000    -0.396928   
O47      O      0.906600000000     0.605850000000     0.498440000000    -0.398647   
O48      O      0.838270000000     0.605280000000     0.497880000000    -0.39872    
O49      O      0.089730000000     0.643110000000     0.996350000000    -0.397302   
O50      O      0.158040000000     0.642510000000     0.006130000000    -0.396985   
O51      O      0.126020000000     0.644090000000     0.932100000000    -0.395801   
O52      O      0.121740000000     0.641630000000     0.068460000000    -0.398812   
O53      O      0.123430000000     0.603980000000     0.066050000000    -0.39614    
O54      O      0.123910000000     0.606480000000     0.929440000000    -0.39923    
O55      O      0.157850000000     0.605090000000     0.996820000000    -0.39869    
O56      O      0.089510000000     0.605400000000     0.996930000000    -0.398549   
O57      O      0.088520000000     0.643390000000     0.501260000000    -0.397182   
O58      O      0.156850000000     0.642510000000     0.492240000000    -0.396897   
O59      O      0.120740000000     0.641750000000     0.429450000000    -0.398604   
O60      O      0.124650000000     0.644230000000     0.565890000000    -0.395589   
O61      O      0.122300000000     0.606630000000     0.568520000000    -0.399222   
O62      O      0.122400000000     0.604110000000     0.431940000000    -0.396555   
O63      O      0.156500000000     0.605110000000     0.501800000000    -0.3987     
O64      O      0.088170000000     0.605690000000     0.500360000000    -0.398708   
O65      O      0.602800000000     0.087870000000     0.992630000000    -0.39685    
O66      O      0.603360000000     0.156160000000     0.981750000000    -0.396443   
O67      O      0.603290000000     0.119730000000     0.919950000000    -0.39822    
O68      O      0.602820000000     0.124310000000     0.056370000000    -0.396043   
O69      O      0.640480000000     0.122480000000     0.057250000000    -0.399188   
O70      O      0.640980000000     0.121120000000     0.920670000000    -0.397051   
O71      O      0.640890000000     0.155980000000     0.989070000000    -0.39808    
O72      O      0.640500000000     0.087600000000     0.990660000000    -0.397855   
O73      O      0.603460000000     0.087940000000     0.490150000000    -0.397105   
O74      O      0.603380000000     0.156350000000     0.484790000000    -0.396902   
O75      O      0.603570000000     0.121220000000     0.420000000000    -0.398691   
O76      O      0.603180000000     0.123080000000     0.556590000000    -0.396769   
O77      O      0.640860000000     0.121570000000     0.557310000000    -0.398633   
O78      O      0.641240000000     0.122920000000     0.420630000000    -0.396224   
O79      O      0.640930000000     0.156470000000     0.491860000000    -0.396794   
O80      O      0.641160000000     0.088010000000     0.488020000000    -0.396843   
O81      O      0.602990000000     0.905900000000     0.012790000000    -0.396643   
O82      O      0.603820000000     0.837460000000     0.019370000000    -0.396315   
O83      O      0.604630000000     0.873010000000     0.083390000000    -0.39882    
O84      O      0.602070000000     0.870380000000     0.946890000000    -0.395719   
O85      O      0.639680000000     0.872760000000     0.944230000000    -0.399392   
O86      O      0.642280000000     0.871310000000     0.080780000000    -0.396243   
O87      O      0.641200000000     0.837880000000     0.009490000000    -0.398115   
O88      O      0.640700000000     0.906220000000     0.013500000000    -0.397916   
O89      O      0.603440000000     0.906450000000     0.512870000000    -0.397505   
O90      O      0.603090000000     0.838070000000     0.510290000000    -0.397849   
O91      O      0.601960000000     0.871860000000     0.580810000000    -0.396158   
O92      O      0.604520000000     0.872620000000     0.444240000000    -0.399238   
O93      O      0.642140000000     0.870360000000     0.446880000000    -0.395781   
O94      O      0.639610000000     0.873620000000     0.583330000000    -0.398608   
O95      O      0.640490000000     0.837760000000     0.519830000000    -0.396192   
O96      O      0.641150000000     0.906190000000     0.511980000000    -0.396323   
O97      O      0.338120000000     0.376840000000     0.976350000000    -0.398163   
O98      O      0.406150000000     0.370980000000     0.966350000000    -0.395808   
O99      O      0.368680000000     0.339400000000     0.968900000000    -0.396712   
O100     O      0.374740000000     0.407390000000     0.973740000000    -0.399887   
O101     O      0.373680000000     0.406040000000     0.048970000000    -0.394301   
O102     O      0.376600000000     0.337640000000     0.042420000000    -0.397323   
O103     O      0.408860000000     0.372870000000     0.041380000000    -0.396675   
O104     O      0.340520000000     0.369880000000     0.050180000000    -0.394353   
O105     O      0.336290000000     0.370330000000     0.467190000000    -0.397978   
O106     O      0.404660000000     0.370330000000     0.458770000000    -0.395807   
O107     O      0.369340000000     0.336640000000     0.466120000000    -0.39887    
O108     O      0.370610000000     0.404970000000     0.459680000000    -0.396296   
O109     O      0.373410000000     0.406600000000     0.534720000000    -0.399568   
O110     O      0.373150000000     0.338300000000     0.541010000000    -0.396589   
O111     O      0.407010000000     0.371990000000     0.533870000000    -0.39871    
O112     O      0.338700000000     0.373710000000     0.542080000000    -0.396118   
O113     O      0.340250000000     0.626240000000     0.042920000000    -0.39586    
O114     O      0.408470000000     0.621990000000     0.037630000000    -0.398763   
O115     O      0.376920000000     0.657800000000     0.036090000000    -0.398069   
O116     O      0.372800000000     0.589610000000     0.044590000000    -0.395427   
O117     O      0.374880000000     0.587590000000     0.969490000000    -0.398896   
O118     O      0.369860000000     0.655680000000     0.962250000000    -0.395992   
O119     O      0.406890000000     0.623630000000     0.962450000000    -0.395857   
O120     O      0.338720000000     0.618700000000     0.969210000000    -0.398861   
O121     O      0.337590000000     0.618440000000     0.532100000000    -0.398312   
O122     O      0.405880000000     0.622820000000     0.537510000000    -0.395458   
O123     O      0.369090000000     0.655190000000     0.537150000000    -0.396288   
O124     O      0.373530000000     0.587030000000     0.532530000000    -0.399194   
O125     O      0.371140000000     0.588330000000     0.457410000000    -0.395303   
O126     O      0.375810000000     0.656590000000     0.463120000000    -0.398195   
O127     O      0.407070000000     0.620590000000     0.462360000000    -0.399342   
O128     O      0.338920000000     0.625250000000     0.458100000000    -0.396599   
O129     O      0.658830000000     0.370170000000     0.011110000000    -0.399068   
O130     O      0.590560000000     0.370880000000     0.019580000000    -0.39705    
O131     O      0.625500000000     0.336860000000     0.012720000000    -0.399377   
O132     O      0.624850000000     0.405150000000     0.017920000000    -0.397406   
O133     O      0.622330000000     0.406740000000     0.942830000000    -0.397143   
O134     O      0.621540000000     0.338240000000     0.937850000000    -0.394657   
O135     O      0.588100000000     0.372550000000     0.944500000000    -0.397103   
O136     O      0.656550000000     0.373190000000     0.936160000000    -0.394557   
O137     O      0.618990000000     0.337460000000     0.441340000000    -0.395852   
O138     O      0.621890000000     0.406030000000     0.436950000000    -0.392878   
O139     O      0.655080000000     0.369830000000     0.435680000000    -0.394568   
O140     O      0.586710000000     0.372690000000     0.442250000000    -0.396879   
O141     O      0.588800000000     0.370290000000     0.517300000000    -0.395829   
O142     O      0.656910000000     0.376230000000     0.509770000000    -0.397953   
O143     O      0.620270000000     0.406750000000     0.512180000000    -0.399802   
O144     O      0.626310000000     0.338750000000     0.515140000000    -0.396725   
O145     O      0.658550000000     0.624240000000     0.964850000000    -0.398813   
O146     O      0.590150000000     0.623150000000     0.960140000000    -0.396319   
O147     O      0.624930000000     0.657360000000     0.966930000000    -0.398122   
O148     O      0.624700000000     0.589020000000     0.958140000000    -0.395669   
O149     O      0.623480000000     0.586610000000     0.033270000000    -0.399116   
O150     O      0.622020000000     0.654870000000     0.041880000000    -0.396482   
O151     O      0.589000000000     0.620310000000     0.035220000000    -0.399982   
O152     O      0.657320000000     0.620350000000     0.039750000000    -0.397075   
O153     O      0.655730000000     0.626500000000     0.453660000000    -0.395532   
O154     O      0.587520000000     0.622090000000     0.459210000000    -0.398707   
O155     O      0.619040000000     0.657940000000     0.462510000000    -0.39749    
O156     O      0.623230000000     0.589830000000     0.450180000000    -0.394614   
O157     O      0.621230000000     0.586780000000     0.525140000000    -0.39816    
O158     O      0.626250000000     0.654810000000     0.536140000000    -0.395377   
O159     O      0.589240000000     0.622740000000     0.534440000000    -0.395767   
O160     O      0.657400000000     0.617910000000     0.526900000000    -0.398538   
O161     O      0.157690000000     0.354230000000     0.019530000000    -0.395726   
O162     O      0.089280000000     0.353640000000     0.009840000000    -0.396157   
O163     O      0.125510000000     0.352630000000     0.945660000000    -0.395785   
O164     O      0.121410000000     0.355100000000     0.082020000000    -0.398593   
O165     O      0.123180000000     0.392740000000     0.079640000000    -0.395874   
O166     O      0.123330000000     0.390240000000     0.943000000000    -0.398858   
O167     O      0.089040000000     0.391340000000     0.010690000000    -0.397201   
O168     O      0.157460000000     0.391630000000     0.010090000000    -0.39776    
O169     O      0.087520000000     0.391180000000     0.510710000000    -0.396434   
O170     O      0.155960000000     0.390650000000     0.518850000000    -0.396043   
O171     O      0.123400000000     0.392250000000     0.445720000000    -0.395782   
O172     O      0.120080000000     0.389710000000     0.582140000000    -0.398796   
O173     O      0.121980000000     0.352080000000     0.579630000000    -0.395753   
O174     O      0.121130000000     0.354640000000     0.443000000000    -0.398831   
O175     O      0.155730000000     0.353280000000     0.508940000000    -0.397718   
O176     O      0.087330000000     0.353480000000     0.511660000000    -0.397555   
O177     O      0.839440000000     0.353220000000     0.978510000000    -0.397726   
O178     O      0.907860000000     0.353350000000     0.977770000000    -0.397282   
O179     O      0.873590000000     0.354550000000     0.045490000000    -0.398753   
O180     O      0.873670000000     0.351980000000     0.908850000000    -0.395715   
O181     O      0.875610000000     0.389610000000     0.906380000000    -0.398622   
O182     O      0.871380000000     0.392160000000     0.042730000000    -0.395607   
O183     O      0.907690000000     0.391050000000     0.978690000000    -0.396292   
O184     O      0.839310000000     0.390590000000     0.968620000000    -0.395929   
O185     O      0.837680000000     0.354080000000     0.469120000000    -0.396115   
O186     O      0.906070000000     0.353650000000     0.478550000000    -0.396425   
O187     O      0.869920000000     0.352550000000     0.542870000000    -0.395722   
O188     O      0.873860000000     0.355040000000     0.406480000000    -0.398471   
O189     O      0.871980000000     0.392680000000     0.408890000000    -0.395693   
O190     O      0.872040000000     0.390170000000     0.545540000000    -0.398673   
O191     O      0.906220000000     0.391350000000     0.477680000000    -0.397461   
O192     O      0.837800000000     0.391470000000     0.478660000000    -0.397718   


