data_structure

_audit_creation_method RASPA-1.0
_audit_creation_date 2023-5-23
_audit_author_name 'Poobodin Mano'

_cell_length_a    29.6486
_cell_length_b    29.6869
_cell_length_c    44.4623
_cell_angle_alpha 89.9999
_cell_angle_beta  90
_cell_angle_gamma 120
_cell_volume      33891.6

_symmetry_cell_setting          triclinic
_symmetry_space_group_name_Hall 'P 1'
_symmetry_space_group_name_H-M  'P 1'
_symmetry_Int_Tables_number     1

_symmetry_equiv_pos_as_xyz 'x,y,z'

loop_
_atom_site_label
_atom_site_type_symbol
_atom_site_fract_x
_atom_site_fract_y
_atom_site_fract_z
_atom_site_charge
C1       C      0.996550000000     0.996770000000     0.270490000000     0.402461   
C2       C      0.995710000000     0.995930000000     0.389890000000     0.402652   
C3       C      0.905200000000     0.908320000000     0.329910000000     0.403092   
C4       C      0.087160000000     0.084440000000     0.330500000000     0.403117   
C5       C      0.995480000000     0.494260000000     0.271950000000     0.403394   
C6       C      0.996120000000     0.496340000000     0.391500000000     0.402304   
C7       C      0.083220000000     0.586950000000     0.331210000000     0.402969   
C8       C      0.908490000000     0.403620000000     0.332150000000     0.40293    
C9       C      0.496250000000     0.995490000000     0.269980000000     0.403337   
C10      C      0.495780000000     0.994850000000     0.389370000000     0.403404   
C11      C      0.405000000000     0.907100000000     0.329500000000     0.403252   
C12      C      0.587010000000     0.083200000000     0.329950000000     0.40313    
C13      C      0.496750000000     0.497150000000     0.390180000000     0.403594   
C14      C      0.495670000000     0.495610000000     0.270720000000     0.404445   
C15      C      0.408790000000     0.404750000000     0.330870000000     0.402965   
C16      C      0.583610000000     0.587980000000     0.329990000000     0.40296    
C17      C      0.994460000000     0.996020000000     0.056560000000     0.402337   
C18      C      0.994710000000     0.996230000000     0.937140000000     0.402511   
C19      C      0.084140000000     0.996130000000     0.996920000000     0.402567   
C20      C      0.905030000000     0.996080000000     0.996760000000     0.402811   
C21      C      0.995140000000     0.497540000000     0.058240000000     0.402049   
C22      C      0.995380000000     0.497530000000     0.938930000000     0.402013   
C23      C      0.904280000000     0.494530000000     0.998530000000     0.399042   
C24      C      0.086260000000     0.500620000000     0.998690000000     0.399084   
C25      C      0.494670000000     0.995800000000     0.056040000000     0.403002   
C26      C      0.494650000000     0.996540000000     0.936630000000     0.403201   
C27      C      0.405090000000     0.996180000000     0.996480000000     0.402783   
C28      C      0.584130000000     0.996100000000     0.996190000000     0.402681   
C29      C      0.495220000000     0.497610000000     0.057150000000     0.404214   
C30      C      0.495440000000     0.497730000000     0.937670000000     0.403563   
C31      C      0.582700000000     0.493380000000     0.997550000000     0.402705   
C32      C      0.407940000000     0.501960000000     0.997480000000     0.402891   
C33      C      0.996990000000     0.908330000000     0.664090000000     0.401932   
C34      C      0.991120000000     0.084440000000     0.663010000000     0.401871   
C35      C      0.994240000000     0.995690000000     0.603820000000     0.402502   
C36      C      0.993870000000     0.997030000000     0.723220000000     0.402595   
C37      C      0.990010000000     0.404840000000     0.664860000000     0.401681   
C38      C      0.998400000000     0.588080000000     0.665900000000     0.401747   
C39      C      0.995000000000     0.497550000000     0.605630000000     0.402485   
C40      C      0.993480000000     0.495370000000     0.725180000000     0.403291   
C41      C      0.496700000000     0.907950000000     0.663100000000     0.402816   
C42      C      0.496700000000     0.087040000000     0.662930000000     0.402716   
C43      C      0.496870000000     0.997440000000     0.603290000000     0.403184   
C44      C      0.496390000000     0.997430000000     0.722700000000     0.403116   
C45      C      0.497000000000     0.408100000000     0.663770000000     0.402724   
C46      C      0.497030000000     0.587210000000     0.664020000000     0.402566   
C47      C      0.497220000000     0.497960000000     0.604180000000     0.403193   
C48      C      0.496840000000     0.497400000000     0.723650000000     0.403119   
C49      C      0.449440000000     0.810900000000     0.662830000000    -0.0225264  
C50      C      0.544310000000     0.684260000000     0.663590000000    -0.0224959  
C51      C      0.449650000000     0.636920000000     0.664350000000    -0.0225682  
C52      C      0.469930000000     0.693840000000     0.663910000000     0.0137052  
C53      C      0.523910000000     0.720840000000     0.663720000000     0.0136301  
C54      C      0.552370000000     0.775350000000     0.663690000000    -0.065966   
C55      C      0.544090000000     0.858250000000     0.663740000000    -0.0224601  
C56      C      0.441370000000     0.719820000000     0.663600000000    -0.0660066  
C57      C      0.523810000000     0.801330000000     0.663620000000     0.0136308  
C58      C      0.469830000000     0.774330000000     0.663340000000     0.0137278  
C59      C      0.544270000000     0.358260000000     0.664050000000    -0.0225148  
C60      C      0.449430000000     0.136880000000     0.663310000000    -0.0225316  
C61      C      0.544090000000     0.184080000000     0.662630000000    -0.0225217  
C62      C      0.523800000000     0.220740000000     0.663020000000     0.0137137  
C63      C      0.469820000000     0.193830000000     0.663170000000     0.0137096  
C64      C      0.441360000000     0.219910000000     0.663150000000    -0.0659848  
C65      C      0.449620000000     0.311070000000     0.663060000000    -0.0225003  
C66      C      0.552360000000     0.275250000000     0.663330000000    -0.0659715  
C67      C      0.469910000000     0.274410000000     0.663220000000     0.0136846  
C68      C      0.523890000000     0.301320000000     0.663540000000     0.0136833  
C69      C      0.045870000000     0.859880000000     0.666260000000    -0.0223704  
C70      C      0.952670000000     0.638840000000     0.664690000000    -0.0223789  
C71      C      0.047220000000     0.685730000000     0.667270000000    -0.0225409  
C72      C      0.026930000000     0.722590000000     0.666530000000     0.0138446  
C73      C      0.973020000000     0.695570000000     0.664980000000     0.0132721  
C74      C      0.944280000000     0.721240000000     0.663770000000    -0.0661547  
C75      C      0.951370000000     0.811580000000     0.663130000000    -0.0224812  
C76      C      0.055120000000     0.777200000000     0.667110000000    -0.0658234  
C77      C      0.972370000000     0.775630000000     0.664280000000     0.0134477  
C78      C      0.026260000000     0.802980000000     0.665980000000     0.0137383  
C79      C      0.942260000000     0.132950000000     0.664290000000    -0.0222378  
C80      C      0.035660000000     0.354020000000     0.663030000000    -0.0224984  
C81      C      0.941090000000     0.307180000000     0.665250000000    -0.022359   
C82      C      0.961320000000     0.270280000000     0.664350000000     0.0123217  
C83      C      0.015240000000     0.297260000000     0.662980000000     0.0148206  
C84      C      0.043950000000     0.271560000000     0.661860000000    -0.0670255  
C85      C      0.036770000000     0.181170000000     0.661400000000    -0.022616   
C86      C      0.933080000000     0.215670000000     0.664870000000    -0.0649619  
C87      C      0.015810000000     0.217160000000     0.662260000000     0.0149878  
C88      C      0.961900000000     0.189850000000     0.663820000000     0.0122593  
C89      C      0.533730000000     0.541070000000     0.888760000000    -0.0226412  
C90      C      0.453660000000     0.458680000000     0.772530000000    -0.022614   
C91      C      0.539560000000     0.536020000000     0.772650000000    -0.0226455  
C92      C      0.520250000000     0.520260000000     0.803830000000     0.0139844  
C93      C      0.472520000000     0.474610000000     0.803770000000     0.0139882  
C94      C      0.448430000000     0.449190000000     0.830610000000    -0.0660568  
C95      C      0.457630000000     0.454340000000     0.888700000000    -0.0226617  
C96      C      0.543890000000     0.545870000000     0.830710000000    -0.0660568  
C97      C      0.473430000000     0.473490000000     0.857500000000     0.0139975  
C98      C      0.518430000000     0.521750000000     0.857540000000     0.0139631  
C99      C      0.539200000000     0.035660000000     0.771730000000    -0.0225272  
C100     C      0.456480000000     0.953730000000     0.887600000000    -0.0223407  
C101     C      0.533370000000     0.039930000000     0.887830000000    -0.0225587  
C102     C      0.517920000000     0.020930000000     0.856580000000     0.0148807  
C103     C      0.472540000000     0.972980000000     0.856450000000     0.0133156  
C104     C      0.447430000000     0.949030000000     0.829530000000    -0.0655954  
C105     C      0.452900000000     0.958850000000     0.771500000000    -0.0224126  
C106     C      0.543570000000     0.045070000000     0.829810000000    -0.0664868  
C107     C      0.471760000000     0.974470000000     0.802740000000     0.0133247  
C108     C      0.519770000000     0.019810000000     0.802880000000     0.0148628  
C109     C      0.806960000000     0.445710000000     0.996700000000    -0.0264728  
C110     C      0.679160000000     0.538970000000     0.998920000000    -0.0263291  
C111     C      0.631430000000     0.444480000000     0.996910000000    -0.0260049  
C112     C      0.688580000000     0.464690000000     0.997460000000     0.0135894  
C113     C      0.715510000000     0.518560000000     0.998840000000     0.0149333  
C114     C      0.769920000000     0.547230000000     0.999920000000    -0.0694212  
C115     C      0.853150000000     0.540060000000     0.000300000000    -0.0145814  
C116     C      0.714990000000     0.436500000000     0.996630000000    -0.0670541  
C117     C      0.796200000000     0.519120000000     0.999330000000     0.0105117  
C118     C      0.769640000000     0.465300000000     0.997500000000     0.0146432  
C119     C      0.137440000000     0.455140000000     0.000520000000    -0.0117949  
C120     C      0.359170000000     0.550840000000     0.996910000000    -0.0271668  
C121     C      0.311480000000     0.456350000000     0.998870000000    -0.0234481  
C122     C      0.275120000000     0.476730000000     0.998890000000     0.00762432 
C123     C      0.302010000000     0.530600000000     0.997530000000     0.0169582  
C124     C      0.275570000000     0.558770000000     0.996770000000    -0.0699368  
C125     C      0.183580000000     0.549490000000     0.996940000000    -0.0276241  
C126     C      0.220710000000     0.448030000000     0.000030000000    -0.055836   
C127     C      0.220930000000     0.529940000000     0.997700000000     0.0180228  
C128     C      0.194400000000     0.476110000000     0.999510000000     0.00323005 
C129     C      0.012480000000     0.467710000000     0.890170000000    -0.022638   
C130     C      0.962930000000     0.511350000000     0.774000000000    -0.0230876  
C131     C      0.023790000000     0.478970000000     0.773990000000    -0.0231896  
C132     C      0.009380000000     0.484400000000     0.805210000000     0.0154187  
C133     C      0.978190000000     0.506930000000     0.805190000000     0.0138525  
C134     C      0.965880000000     0.523280000000     0.832020000000    -0.0658082  
C135     C      0.977850000000     0.526660000000     0.890040000000    -0.0236149  
C136     C      0.022570000000     0.469040000000     0.832080000000    -0.0665277  
C137     C      0.982760000000     0.511660000000     0.858870000000     0.0139711  
C138     C      0.006550000000     0.481620000000     0.858920000000     0.0151834  
C139     C      0.633830000000     0.948800000000     0.995650000000    -0.0257462  
C140     C      0.855300000000     0.043340000000     0.996240000000    -0.0257822  
C141     C      0.807960000000     0.948790000000     0.996910000000    -0.0256593  
C142     C      0.771350000000     0.969100000000     0.996490000000     0.0134013  
C143     C      0.798340000000     0.023020000000     0.996350000000     0.0150086  
C144     C      0.772330000000     0.051510000000     0.996410000000    -0.0675414  
C145     C      0.681190000000     0.043350000000     0.996640000000    -0.0258366  
C146     C      0.716800000000     0.940620000000     0.996220000000    -0.0666328  
C147     C      0.717790000000     0.023030000000     0.996370000000     0.0150338  
C148     C      0.690790000000     0.969110000000     0.996050000000     0.0134646  
C149     C      0.133880000000     0.948870000000     0.996490000000    -0.025727   
C150     C      0.355360000000     0.043470000000     0.996300000000    -0.025926   
C151     C      0.308030000000     0.948910000000     0.997000000000    -0.0257619  
C152     C      0.271410000000     0.969220000000     0.996840000000     0.0134959  
C153     C      0.298400000000     0.023140000000     0.996670000000     0.0150387  
C154     C      0.272370000000     0.051620000000     0.996880000000    -0.0675386  
C155     C      0.181210000000     0.043430000000     0.997390000000    -0.0259014  
C156     C      0.216870000000     0.940730000000     0.996770000000    -0.0666091  
C157     C      0.217830000000     0.023120000000     0.997040000000     0.0150132  
C158     C      0.190840000000     0.969200000000     0.996760000000     0.013496   
C159     C      0.956530000000     0.953060000000     0.888200000000    -0.0221259  
C160     C      0.036590000000     0.036140000000     0.772120000000    -0.0224476  
C161     C      0.951070000000     0.958270000000     0.772140000000    -0.0220774  
C162     C      0.970200000000     0.974120000000     0.803330000000     0.0123631  
C163     C      0.017760000000     0.019970000000     0.803330000000     0.0155374  
C164     C      0.041780000000     0.045320000000     0.830190000000    -0.0669721  
C165     C      0.032650000000     0.039790000000     0.888250000000    -0.0224232  
C166     C      0.946570000000     0.948370000000     0.830180000000    -0.0651461  
C167     C      0.016830000000     0.020810000000     0.857040000000     0.0155247  
C168     C      0.971890000000     0.972490000000     0.857030000000     0.0123948  
C169     C      0.459310000000     0.503500000000     0.439110000000    -0.0225854  
C170     C      0.540170000000     0.502120000000     0.555260000000    -0.0226191  
C171     C      0.454510000000     0.494240000000     0.555250000000    -0.0226171  
C172     C      0.473570000000     0.497350000000     0.524040000000     0.0140291  
C173     C      0.521130000000     0.499020000000     0.524040000000     0.0139814  
C174     C      0.544820000000     0.497000000000     0.497180000000    -0.0660065  
C175     C      0.534920000000     0.491970000000     0.439120000000    -0.0226355  
C176     C      0.449780000000     0.499150000000     0.497180000000    -0.0660398  
C177     C      0.519630000000     0.496100000000     0.470320000000     0.014014   
C178     C      0.474870000000     0.499850000000     0.470320000000     0.0140201  
C179     C      0.448670000000     0.478750000000     0.222020000000    -0.0232208  
C180     C      0.541940000000     0.527370000000     0.105920000000    -0.023283   
C181     C      0.448500000000     0.467220000000     0.105890000000    -0.0231727  
C182     C      0.468380000000     0.481450000000     0.137100000000     0.0148321  
C183     C      0.522190000000     0.512200000000     0.137090000000     0.0148291  
C184     C      0.550850000000     0.524250000000     0.163900000000    -0.0662444  
C185     C      0.542180000000     0.512350000000     0.221890000000    -0.023139   
C186     C      0.439820000000     0.468570000000     0.163960000000    -0.0662551  
C187     C      0.522290000000     0.507620000000     0.190740000000     0.0147099  
C188     C      0.468460000000     0.484380000000     0.190790000000     0.014775   
C189     C      0.539830000000     0.001500000000     0.554390000000    -0.0211356  
C190     C      0.457670000000     0.000190000000     0.438260000000    -0.021252   
C191     C      0.534030000000     0.989880000000     0.438310000000    -0.0231712  
C192     C      0.518670000000     0.994000000000     0.469490000000     0.0141564  
C193     C      0.473550000000     0.997100000000     0.469470000000     0.0134169  
C194     C      0.448510000000     0.996520000000     0.496310000000    -0.0660136  
C195     C      0.453790000000     0.992730000000     0.554370000000    -0.0232124  
C196     C      0.544200000000     0.995610000000     0.496350000000    -0.0658784  
C197     C      0.472680000000     0.995470000000     0.523180000000     0.0143093  
C198     C      0.520500000000     0.997690000000     0.523190000000     0.0132518  
C199     C      0.500250000000     0.038980000000     0.105040000000    -0.0225263  
C200     C      0.500040000000     0.956770000000     0.220970000000    -0.022432   
C201     C      0.492390000000     0.034590000000     0.221150000000    -0.0225769  
C202     C      0.495080000000     0.018590000000     0.189920000000     0.0149467  
C203     C      0.496780000000     0.972770000000     0.189810000000     0.013311   
C204     C      0.494730000000     0.947210000000     0.162900000000    -0.0655077  
C205     C      0.489620000000     0.952290000000     0.104870000000    -0.0224457  
C206     C      0.496480000000     0.044100000000     0.163110000000    -0.066479   
C207     C      0.493600000000     0.971490000000     0.136100000000     0.0133932  
C208     C      0.496990000000     0.019790000000     0.136200000000     0.0149998  
C209     C      0.034420000000     0.492090000000     0.440640000000    -0.0226955  
C210     C      0.952310000000     0.492990000000     0.556510000000    -0.0224929  
C211     C      0.038860000000     0.503040000000     0.556820000000    -0.0226362  
C212     C      0.019870000000     0.499330000000     0.525530000000     0.0147563  
C213     C      0.971780000000     0.496520000000     0.525350000000     0.0132207  
C214     C      0.947870000000     0.497660000000     0.498370000000    -0.0655281  
C215     C      0.957890000000     0.502070000000     0.440290000000    -0.0224816  
C216     C      0.044020000000     0.497710000000     0.498760000000    -0.0663592  
C217     C      0.973430000000     0.498850000000     0.471590000000     0.0132131  
C218     C      0.018730000000     0.496070000000     0.471780000000     0.014762   
C219     C      0.638010000000     0.179840000000     0.332040000000    -0.022587   
C220     C      0.859850000000     0.306030000000     0.331010000000    -0.022481   
C221     C      0.811990000000     0.352680000000     0.333450000000    -0.0225087  
C222     C      0.775680000000     0.295950000000     0.332650000000     0.0141376  
C223     C      0.802690000000     0.269080000000     0.331160000000     0.0131054  
C224     C      0.776350000000     0.214520000000     0.329860000000    -0.0654665  
C225     C      0.684420000000     0.131790000000     0.329000000000    -0.0224095  
C226     C      0.721220000000     0.270190000000     0.333090000000    -0.0666453  
C227     C      0.721660000000     0.188650000000     0.330230000000     0.013079   
C228     C      0.695000000000     0.215860000000     0.331890000000     0.0143366  
C229     C      0.132000000000     0.684530000000     0.329410000000    -0.0224713  
C230     C      0.353880000000     0.810430000000     0.331160000000    -0.0226016  
C231     C      0.307630000000     0.858620000000     0.328020000000    -0.0223005  
C232     C      0.270300000000     0.801760000000     0.328980000000     0.0129902  
C233     C      0.296880000000     0.774480000000     0.330700000000     0.0143542  
C234     C      0.270560000000     0.720130000000     0.331830000000    -0.0666867  
C235     C      0.179720000000     0.637760000000     0.332100000000    -0.0225136  
C236     C      0.215630000000     0.775970000000     0.328420000000    -0.0653657  
C237     C      0.216110000000     0.694450000000     0.331210000000     0.0141671  
C238     C      0.189190000000     0.721410000000     0.329610000000     0.0130802  
C239     C      0.948400000000     0.466880000000     0.107010000000    -0.0232311  
C240     C      0.042010000000     0.511060000000     0.223090000000    -0.0230784  
C241     C      0.948470000000     0.477180000000     0.223220000000    -0.023101   
C242     C      0.968310000000     0.483160000000     0.191970000000     0.0140258  
C243     C      0.022150000000     0.506540000000     0.191920000000     0.0153267  
C244     C      0.050710000000     0.523520000000     0.165080000000    -0.0665431  
C245     C      0.041790000000     0.527190000000     0.107090000000    -0.0233143  
C246     C      0.939700000000     0.467590000000     0.165120000000    -0.0658663  
C247     C      0.022060000000     0.511660000000     0.138260000000     0.0154261  
C248     C      0.968270000000     0.480820000000     0.138250000000     0.0140648  
C249     C      0.956850000000     0.000320000000     0.438710000000    -0.0209883  
C250     C      0.037640000000     0.000170000000     0.555020000000    -0.0212277  
C251     C      0.951170000000     0.990380000000     0.554800000000    -0.0229975  
C252     C      0.970540000000     0.993830000000     0.523650000000     0.013432   
C253     C      0.018610000000     0.996590000000     0.523780000000     0.0141314  
C254     C      0.042880000000     0.995340000000     0.496990000000    -0.0664152  
C255     C      0.033630000000     0.990730000000     0.438900000000    -0.0231941  
C256     C      0.946670000000     0.995230000000     0.496730000000    -0.0654885  
C257     C      0.017650000000     0.994020000000     0.470060000000     0.0150109  
C258     C      0.972280000000     0.996660000000     0.469940000000     0.012525   
C259     C      0.632350000000     0.685560000000     0.328490000000    -0.0224234  
C260     C      0.854150000000     0.811640000000     0.331270000000    -0.0225396  
C261     C      0.807840000000     0.859770000000     0.328190000000    -0.0223152  
C262     C      0.770560000000     0.802890000000     0.328840000000     0.0129951  
C263     C      0.797180000000     0.775630000000     0.330520000000     0.0143109  
C264     C      0.770910000000     0.721270000000     0.331330000000    -0.0667193  
C265     C      0.680120000000     0.638830000000     0.331020000000    -0.0225598  
C266     C      0.715900000000     0.777050000000     0.328040000000    -0.0653996  
C267     C      0.716470000000     0.695550000000     0.330460000000     0.014178   
C268     C      0.689510000000     0.722470000000     0.328930000000     0.0130435  
C269     C      0.138220000000     0.181110000000     0.332390000000    -0.0226921  
C270     C      0.360050000000     0.307150000000     0.329890000000    -0.0224797  
C271     C      0.312300000000     0.353900000000     0.332450000000    -0.0225178  
C272     C      0.275940000000     0.297180000000     0.331950000000     0.0141598  
C273     C      0.302890000000     0.270250000000     0.330410000000     0.0131197  
C274     C      0.276490000000     0.215670000000     0.329410000000    -0.0654401  
C275     C      0.184540000000     0.132980000000     0.329260000000    -0.0223595  
C276     C      0.221490000000     0.271460000000     0.332750000000    -0.066667   
C277     C      0.221820000000     0.189840000000     0.330150000000     0.0130691  
C278     C      0.195220000000     0.217100000000     0.331850000000     0.0143927  
C279     C      0.992600000000     0.035700000000     0.221610000000    -0.0232183  
C280     C      0.989310000000     0.952710000000     0.105470000000    -0.0228881  
C281     C      0.999960000000     0.039410000000     0.105480000000    -0.0232888  
C282     C      0.996770000000     0.020370000000     0.136680000000     0.0152294  
C283     C      0.993360000000     0.972070000000     0.136670000000     0.0132196  
C284     C      0.994610000000     0.947950000000     0.163500000000    -0.065227   
C285     C      0.000220000000     0.957870000000     0.221540000000    -0.0210091  
C286     C      0.996400000000     0.044850000000     0.163550000000    -0.0668316  
C287     C      0.996780000000     0.973670000000     0.190360000000     0.0124611  
C288     C      0.995100000000     0.019500000000     0.190400000000     0.0153181  
Cu1      Cu     0.019270000000     0.971380000000     0.330190000000     0.844032   
Cu2      Cu     0.973070000000     0.021380000000     0.330190000000     0.844105   
Cu3      Cu     0.969350000000     0.516920000000     0.331510000000     0.843202   
Cu4      Cu     0.022330000000     0.473680000000     0.331870000000     0.844584   
Cu5      Cu     0.519100000000     0.970130000000     0.329650000000     0.842978   
Cu6      Cu     0.472920000000     0.020160000000     0.329700000000     0.84559    
Cu7      Cu     0.469760000000     0.518040000000     0.330360000000     0.844981   
Cu8      Cu     0.522650000000     0.474700000000     0.330460000000     0.844767   
Cu9      Cu     0.970500000000     0.948000000000     0.996820000000     0.841527   
Cu10     Cu     0.018660000000     0.044220000000     0.996880000000     0.844323   
Cu11     Cu     0.018200000000     0.545520000000     0.998590000000     0.837687   
Cu12     Cu     0.972330000000     0.449610000000     0.998590000000     0.836605   
Cu13     Cu     0.518720000000     0.044260000000     0.996430000000     0.843492   
Cu14     Cu     0.470510000000     0.948040000000     0.996240000000     0.842529   
Cu15     Cu     0.468880000000     0.449570000000     0.997430000000     0.843397   
Cu16     Cu     0.521760000000     0.545770000000     0.997460000000     0.842949   
Cu17     Cu     0.945930000000     0.971330000000     0.663480000000     0.842035   
Cu18     Cu     0.042190000000     0.021440000000     0.663570000000     0.844167   
Cu19     Cu     0.946080000000     0.474750000000     0.665250000000     0.842813   
Cu20     Cu     0.042360000000     0.518180000000     0.665620000000     0.843534   
Cu21     Cu     0.448520000000     0.973430000000     0.662930000000     0.843545   
Cu22     Cu     0.544840000000     0.021530000000     0.663060000000     0.844376   
Cu23     Cu     0.448880000000     0.473630000000     0.663870000000     0.843448   
Cu24     Cu     0.545190000000     0.521700000000     0.663970000000     0.843044   
H1       H      0.425020000000     0.617700000000     0.644330000000     0.0434176  
H2       H      0.567780000000     0.689310000000     0.643060000000     0.0442422  
H3       H      0.594530000000     0.796440000000     0.663720000000     0.0440868  
H4       H      0.399210000000     0.698730000000     0.663560000000     0.0442097  
H5       H      0.426130000000     0.805600000000     0.642200000000     0.0442895  
H6       H      0.567430000000     0.876650000000     0.684310000000     0.0442567  
H7       H      0.426280000000     0.618840000000     0.684950000000     0.0442597  
H8       H      0.568880000000     0.689920000000     0.683690000000     0.0433053  
H9       H      0.568770000000     0.877180000000     0.643680000000     0.0433187  
H10      H      0.424710000000     0.805480000000     0.682820000000     0.04351    
H11      H      0.568670000000     0.189460000000     0.682690000000     0.0435518  
H12      H      0.425910000000     0.118500000000     0.683820000000     0.0443807  
H13      H      0.399200000000     0.198890000000     0.663090000000     0.0441736  
H14      H      0.594520000000     0.296270000000     0.663400000000     0.0442085  
H15      H      0.567550000000     0.376240000000     0.684690000000     0.0442528  
H16      H      0.426340000000     0.306180000000     0.642470000000     0.0442671  
H17      H      0.567530000000     0.189340000000     0.642060000000     0.0443272  
H18      H      0.424910000000     0.118000000000     0.643190000000     0.0434473  
H19      H      0.424890000000     0.305340000000     0.683100000000     0.0433754  
H20      H      0.569030000000     0.377540000000     0.644070000000     0.0433591  
H21      H      0.069420000000     0.690230000000     0.688270000000     0.043416   
H22      H      0.927090000000     0.619750000000     0.684420000000     0.0438349  
H23      H      0.902180000000     0.699940000000     0.662460000000     0.0439394  
H24      H      0.097220000000     0.798490000000     0.668350000000     0.0442508  
H25      H      0.067680000000     0.878090000000     0.687290000000     0.0440582  
H26      H      0.929350000000     0.806490000000     0.641970000000     0.0441013  
H27      H      0.072890000000     0.691630000000     0.647690000000     0.043772   
H28      H      0.930140000000     0.620810000000     0.643830000000     0.0440784  
H29      H      0.925230000000     0.805310000000     0.682530000000     0.0434686  
H30      H      0.071790000000     0.879420000000     0.646730000000     0.0434868  
H31      H      0.918510000000     0.302250000000     0.686150000000     0.043315   
H32      H      0.061140000000     0.372750000000     0.682840000000     0.0440709  
H33      H      0.086070000000     0.292820000000     0.660780000000     0.0442154  
H34      H      0.890980000000     0.194410000000     0.666070000000     0.0440547  
H35      H      0.920150000000     0.114870000000     0.685260000000     0.0440861  
H36      H      0.058830000000     0.186000000000     0.640290000000     0.0442232  
H37      H      0.915780000000     0.301730000000     0.645550000000     0.0436297  
H38      H      0.058320000000     0.372380000000     0.642250000000     0.044081   
H39      H      0.062880000000     0.187650000000     0.680850000000     0.043699   
H40      H      0.916590000000     0.113300000000     0.644690000000     0.0433867  
H41      H      0.575810000000     0.534470000000     0.768840000000     0.0452696  
H42      H      0.445910000000     0.418700000000     0.767680000000     0.0421257  
H43      H      0.412170000000     0.412480000000     0.830570000000     0.0443651  
H44      H      0.580140000000     0.582580000000     0.830750000000     0.0443548  
H45      H      0.574060000000     0.549930000000     0.893830000000     0.0420406  
H46      H      0.417240000000     0.445570000000     0.893490000000     0.0420284  
H47      H      0.547470000000     0.576000000000     0.767640000000     0.042157   
H48      H      0.417420000000     0.460120000000     0.768440000000     0.0453365  
H49      H      0.460090000000     0.418700000000     0.892770000000     0.0453908  
H50      H      0.531150000000     0.576700000000     0.892600000000     0.0453186  
H51      H      0.531380000000     0.075860000000     0.891770000000     0.045483   
H52      H      0.416270000000     0.945520000000     0.892390000000     0.0421848  
H53      H      0.410920000000     0.912570000000     0.829420000000     0.0445363  
H54      H      0.580070000000     0.081530000000     0.829910000000     0.0448216  
H55      H      0.547480000000     0.075790000000     0.766820000000     0.0423924  
H56      H      0.444740000000     0.918750000000     0.766570000000     0.0422927  
H57      H      0.573500000000     0.048160000000     0.892880000000     0.0424261  
H58      H      0.458320000000     0.917720000000     0.891580000000     0.045365   
H59      H      0.416910000000     0.960750000000     0.767430000000     0.0454138  
H60      H      0.575250000000     0.033750000000     0.767890000000     0.0455491  
H61      H      0.611970000000     0.419400000000     0.016750000000     0.0465821  
H62      H      0.683700000000     0.561770000000     0.019660000000     0.0464729  
H63      H      0.790740000000     0.589280000000     0.001140000000     0.0468223  
H64      H      0.694170000000     0.394460000000     0.995350000000     0.0439317  
H65      H      0.800860000000     0.419540000000     0.016030000000     0.0462459  
H66      H      0.872930000000     0.566530000000     0.981010000000     0.0400746  
H67      H      0.613400000000     0.421740000000     0.976130000000     0.0438988  
H68      H      0.685620000000     0.564220000000     0.979050000000     0.0447754  
H69      H      0.870180000000     0.561640000000     0.021560000000     0.0433226  
H70      H      0.803110000000     0.424270000000     0.975490000000     0.0447141  
H71      H      0.304980000000     0.431140000000     0.978970000000     0.0440707  
H72      H      0.377120000000     0.573600000000     0.976110000000     0.0441124  
H73      H      0.296370000000     0.600810000000     0.995490000000     0.0446044  
H74      H      0.199910000000     0.405980000000     0.001220000000     0.042517   
H75      H      0.117630000000     0.428640000000     0.981260000000     0.0395056  
H76      H      0.189670000000     0.575620000000     0.016290000000     0.0464832  
H77      H      0.307010000000     0.433500000000     0.019580000000     0.0457859  
H78      H      0.378700000000     0.575900000000     0.016730000000     0.0468543  
H79      H      0.187410000000     0.570970000000     0.975750000000     0.045021   
H80      H      0.120480000000     0.433590000000     0.021800000000     0.0426735  
H81      H      0.013530000000     0.438260000000     0.768980000000     0.0405571  
H82      H      0.920450000000     0.485220000000     0.770510000000     0.0457455  
H83      H      0.944360000000     0.543890000000     0.831990000000     0.0445957  
H84      H      0.044110000000     0.448450000000     0.832110000000     0.044874   
H85      H      0.987340000000     0.425270000000     0.894120000000     0.0455459  
H86      H      0.003150000000     0.569230000000     0.893480000000     0.0462014  
H87      H      0.066180000000     0.504910000000     0.770070000000     0.0460483  
H88      H      0.972980000000     0.551870000000     0.768600000000     0.0403258  
H89      H      0.936990000000     0.515620000000     0.895440000000     0.0405709  
H90      H      0.053520000000     0.478970000000     0.895190000000     0.0405207  
H91      H      0.802620000000     0.924280000000     0.976840000000     0.0437777  
H92      H      0.873740000000     0.066790000000     0.975720000000     0.0448092  
H93      H      0.793410000000     0.093610000000     0.996490000000     0.044085   
H94      H      0.695720000000     0.898520000000     0.996170000000     0.0437704  
H95      H      0.615720000000     0.925600000000     0.975010000000     0.0447531  
H96      H      0.686240000000     0.066640000000     0.017230000000     0.0474144  
H97      H      0.802620000000     0.925340000000     0.017470000000     0.0471369  
H98      H      0.874190000000     0.067850000000     0.016360000000     0.0464387  
H99      H      0.686810000000     0.068020000000     0.976600000000     0.0440562  
H100     H      0.614620000000     0.924060000000     0.015640000000     0.0464424  
H101     H      0.302420000000     0.924390000000     0.976900000000     0.0440088  
H102     H      0.373540000000     0.066900000000     0.975740000000     0.0449395  
H103     H      0.293440000000     0.093720000000     0.996910000000     0.0440569  
H104     H      0.195800000000     0.898620000000     0.996710000000     0.0438702  
H105     H      0.115610000000     0.925540000000     0.975910000000     0.044809   
H106     H      0.186330000000     0.066700000000     0.018000000000     0.0473227  
H107     H      0.302970000000     0.925490000000     0.017530000000     0.0472833  
H108     H      0.374510000000     0.067980000000     0.016370000000     0.046593   
H109     H      0.186740000000     0.068090000000     0.977370000000     0.0440051  
H110     H      0.114830000000     0.924260000000     0.016550000000     0.0464426  
H111     H      0.914630000000     0.959430000000     0.768280000000     0.0450481  
H112     H      0.043850000000     0.075960000000     0.767310000000     0.0423074  
H113     H      0.077940000000     0.082110000000     0.830190000000     0.0446369  
H114     H      0.910440000000     0.911550000000     0.830170000000     0.0440766  
H115     H      0.916200000000     0.944220000000     0.893260000000     0.0420303  
H116     H      0.073020000000     0.048480000000     0.893020000000     0.0422994  
H117     H      0.943570000000     0.918420000000     0.767140000000     0.0420615  
H118     H      0.073100000000     0.035210000000     0.768040000000     0.045493   
H119     H      0.030240000000     0.075450000000     0.892400000000     0.0453463  
H120     H      0.959080000000     0.917400000000     0.892000000000     0.0449612  
H121     H      0.418110000000     0.456680000000     0.559180000000     0.0454043  
H122     H      0.547790000000     0.469820000000     0.560190000000     0.0421335  
H123     H      0.580890000000     0.496130000000     0.497190000000     0.044411   
H124     H      0.413660000000     0.499920000000     0.497180000000     0.0444269  
H125     H      0.418800000000     0.472250000000     0.434260000000     0.0420678  
H126     H      0.575360000000     0.523190000000     0.434090000000     0.0420218  
H127     H      0.446970000000     0.526590000000     0.560180000000     0.0421165  
H128     H      0.576520000000     0.539710000000     0.559210000000     0.0453436  
H129     H      0.532040000000     0.453620000000     0.435270000000     0.0454564  
H130     H      0.462240000000     0.541820000000     0.435060000000     0.045422   
H131     H      0.418240000000     0.477810000000     0.100890000000     0.0405808  
H132     H      0.558620000000     0.569840000000     0.102450000000     0.0460905  
H133     H      0.593000000000     0.545400000000     0.163870000000     0.0448753  
H134     H      0.397660000000     0.447440000000     0.163990000000     0.0448687  
H135     H      0.431760000000     0.504250000000     0.225950000000     0.0459632  
H136     H      0.559060000000     0.486700000000     0.225340000000     0.0457994  
H137     H      0.431780000000     0.424840000000     0.101970000000     0.0461784  
H138     H      0.572180000000     0.516950000000     0.100500000000     0.0406217  
H139     H      0.572310000000     0.553050000000     0.227260000000     0.0403991  
H140     H      0.418580000000     0.437890000000     0.227070000000     0.040425   
H141     H      0.531590000000     0.951710000000     0.434560000000     0.0453984  
H142     H      0.417350000000     0.968440000000     0.433500000000     0.0416901  
H143     H      0.412170000000     0.996870000000     0.496300000000     0.044351   
H144     H      0.580540000000     0.995270000000     0.496360000000     0.0443314  
H145     H      0.547880000000     0.969540000000     0.559510000000     0.0416618  
H146     H      0.445920000000     0.024930000000     0.559110000000     0.0426693  
H147     H      0.574310000000     0.021380000000     0.433220000000     0.0427154  
H148     H      0.459900000000     0.038170000000     0.434110000000     0.0453153  
H149     H      0.417610000000     0.955070000000     0.558510000000     0.045573   
H150     H      0.575990000000     0.039350000000     0.558150000000     0.0451919  
H151     H      0.454910000000     0.033550000000     0.225260000000     0.0456628  
H152     H      0.467630000000     0.916910000000     0.225920000000     0.0423849  
H153     H      0.494050000000     0.910410000000     0.162820000000     0.0446329  
H154     H      0.497130000000     0.080880000000     0.163190000000     0.0449226  
H155     H      0.468570000000     0.047680000000     0.100320000000     0.042804   
H156     H      0.521150000000     0.943540000000     0.099780000000     0.0426569  
H157     H      0.524940000000     0.074420000000     0.226010000000     0.0424804  
H158     H      0.537640000000     0.957920000000     0.224800000000     0.0453625  
H159     H      0.451400000000     0.916630000000     0.101000000000     0.045633   
H160     H      0.538360000000     0.074690000000     0.100980000000     0.0458029  
H161     H      0.074620000000     0.541140000000     0.560790000000     0.0454966  
H162     H      0.943780000000     0.524720000000     0.561340000000     0.0418584  
H163     H      0.911330000000     0.497590000000     0.498220000000     0.0442893  
H164     H      0.080510000000     0.497660000000     0.498900000000     0.0445445  
H165     H      0.074680000000     0.523720000000     0.435640000000     0.0420469  
H166     H      0.917620000000     0.470350000000     0.435390000000     0.041954   
H167     H      0.047490000000     0.471460000000     0.561890000000     0.0421284  
H168     H      0.916390000000     0.455000000000     0.560390000000     0.0454692  
H169     H      0.960150000000     0.540060000000     0.436150000000     0.0453744  
H170     H      0.032230000000     0.454020000000     0.436930000000     0.0455921  
H171     H      0.807060000000     0.370110000000     0.354440000000     0.0439273  
H172     H      0.879000000000     0.299870000000     0.350810000000     0.0435667  
H173     H      0.797240000000     0.193350000000     0.328590000000     0.0441919  
H174     H      0.700320000000     0.291380000000     0.334270000000     0.0441774  
H175     H      0.620030000000     0.183980000000     0.353030000000     0.0443188  
H176     H      0.689010000000     0.114550000000     0.307840000000     0.0441168  
H177     H      0.805840000000     0.372240000000     0.313850000000     0.044124   
H178     H      0.878260000000     0.301910000000     0.310210000000     0.0434081  
H179     H      0.689880000000     0.111390000000     0.348400000000     0.0435749  
H180     H      0.619070000000     0.186920000000     0.312460000000     0.0436866  
H181     H      0.301870000000     0.878810000000     0.347420000000     0.0434939  
H182     H      0.371530000000     0.805990000000     0.352210000000     0.0442675  
H183     H      0.291390000000     0.698890000000     0.333150000000     0.0441896  
H184     H      0.194800000000     0.797220000000     0.327130000000     0.0441391  
H185     H      0.112780000000     0.690920000000     0.349100000000     0.0436636  
H186     H      0.185780000000     0.618070000000     0.312530000000     0.0440247  
H187     H      0.303410000000     0.876130000000     0.306870000000     0.0439855  
H188     H      0.373080000000     0.803570000000     0.311630000000     0.0436664  
H189     H      0.184660000000     0.620400000000     0.353110000000     0.044099   
H190     H      0.113730000000     0.688500000000     0.308510000000     0.0434283  
H191     H      0.918480000000     0.436240000000     0.228150000000     0.0403558  
H192     H      0.059000000000     0.485480000000     0.226430000000     0.0457532  
H193     H      0.092860000000     0.544780000000     0.165070000000     0.045022   
H194     H      0.897550000000     0.446370000000     0.165130000000     0.0447861  
H195     H      0.931760000000     0.424560000000     0.102920000000     0.0462904  
H196     H      0.058370000000     0.569690000000     0.103780000000     0.046225   
H197     H      0.931400000000     0.502520000000     0.227260000000     0.0459065  
H198     H      0.072060000000     0.551740000000     0.228560000000     0.0404367  
H199     H      0.072110000000     0.516930000000     0.101550000000     0.0408673  
H200     H      0.918070000000     0.477430000000     0.102130000000     0.0407401  
H201     H      0.915270000000     0.952390000000     0.558720000000     0.0453937  
H202     H      0.045980000000     0.968370000000     0.560050000000     0.041755   
H203     H      0.079430000000     0.995430000000     0.497080000000     0.0445055  
H204     H      0.910160000000     0.995230000000     0.496630000000     0.0442058  
H205     H      0.916700000000     0.968510000000     0.433650000000     0.0415972  
H206     H      0.073880000000     0.022570000000     0.434090000000     0.0427231  
H207     H      0.942670000000     0.022120000000     0.559630000000     0.0425956  
H208     H      0.073560000000     0.038130000000     0.558990000000     0.0453426  
H209     H      0.031610000000     0.952810000000     0.434920000000     0.0455885  
H210     H      0.958880000000     0.038270000000     0.434800000000     0.0451663  
H211     H      0.801810000000     0.879630000000     0.347670000000     0.0434212  
H212     H      0.871520000000     0.806930000000     0.352360000000     0.0441842  
H213     H      0.791770000000     0.700060000000     0.332600000000     0.0441665  
H214     H      0.695040000000     0.798270000000     0.326810000000     0.0441073  
H215     H      0.612870000000     0.691630000000     0.348150000000     0.0436292  
H216     H      0.686390000000     0.619490000000     0.311350000000     0.0439726  
H217     H      0.803840000000     0.877590000000     0.307110000000     0.0440003  
H218     H      0.873660000000     0.805080000000     0.311790000000     0.043607   
H219     H      0.684880000000     0.621120000000     0.351940000000     0.0440837  
H220     H      0.614310000000     0.689800000000     0.307560000000     0.0433478  
H221     H      0.307710000000     0.371660000000     0.353400000000     0.0440041  
H222     H      0.379560000000     0.301210000000     0.349590000000     0.0436434  
H223     H      0.297340000000     0.194460000000     0.328100000000     0.0442143  
H224     H      0.200640000000     0.292690000000     0.333980000000     0.0442274  
H225     H      0.120660000000     0.185540000000     0.353470000000     0.0443487  
H226     H      0.188780000000     0.115380000000     0.308150000000     0.0441785  
H227     H      0.305880000000     0.373200000000     0.312810000000     0.0440864  
H228     H      0.378050000000     0.302770000000     0.308990000000     0.043449   
H229     H      0.190320000000     0.112900000000     0.348710000000     0.0435671  
H230     H      0.118920000000     0.187930000000     0.312900000000     0.0438239  
H231     H      0.038060000000     0.075100000000     0.101360000000     0.0462314  
H232     H      0.020790000000     0.943880000000     0.100410000000     0.0430726  
H233     H      0.993940000000     0.911150000000     0.163480000000     0.0443979  
H234     H      0.997080000000     0.081650000000     0.163570000000     0.0448609  
H235     H      0.025190000000     0.075550000000     0.226380000000     0.0429182  
H236     H      0.967840000000     0.918030000000     0.226590000000     0.0418403  
H237     H      0.968270000000     0.048060000000     0.100730000000     0.0428572  
H238     H      0.951060000000     0.917050000000     0.101650000000     0.0456071  
H239     H      0.037840000000     0.959040000000     0.225330000000     0.045185   
H240     H      0.955150000000     0.034720000000     0.225770000000     0.0457412  
N1       N      0.496730000000     0.862180000000     0.663190000000    -0.166409   
N2       N      0.497010000000     0.632980000000     0.664030000000    -0.166396   
N3       N      0.496970000000     0.362310000000     0.663660000000    -0.166448   
N4       N      0.496730000000     0.132840000000     0.662920000000    -0.166351   
N5       N      0.998140000000     0.863130000000     0.664430000000    -0.166504   
N6       N      0.999780000000     0.634550000000     0.666040000000    -0.166511   
N7       N      0.989980000000     0.129650000000     0.662820000000    -0.166445   
N8       N      0.988580000000     0.358350000000     0.664440000000    -0.166495   
N9       N      0.495550000000     0.497740000000     0.907150000000    -0.166586   
N10      N      0.496730000000     0.497320000000     0.754180000000    -0.166445   
N11      N      0.496210000000     0.997320000000     0.753220000000    -0.166716   
N12      N      0.494760000000     0.996740000000     0.906110000000    -0.16674    
N13      N      0.857910000000     0.493360000000     0.998520000000    -0.167773   
N14      N      0.627760000000     0.491930000000     0.997760000000    -0.166192   
N15      N      0.132640000000     0.501820000000     0.998750000000    -0.167931   
N16      N      0.362870000000     0.503400000000     0.997690000000    -0.166365   
N17      N      0.995470000000     0.497510000000     0.908460000000    -0.166204   
N18      N      0.993110000000     0.494850000000     0.755640000000    -0.166397   
N19      N      0.629900000000     0.996090000000     0.996140000000    -0.166427   
N20      N      0.859240000000     0.996070000000     0.996670000000    -0.166462   
N21      N      0.129930000000     0.996140000000     0.996950000000    -0.16636    
N22      N      0.359310000000     0.996190000000     0.996580000000    -0.166374   
N23      N      0.994700000000     0.996310000000     0.906630000000    -0.167002   
N24      N      0.993780000000     0.997240000000     0.753730000000    -0.166989   
N25      N      0.497000000000     0.497550000000     0.420700000000    -0.166566   
N26      N      0.497310000000     0.498130000000     0.573660000000    -0.166522   
N27      N      0.495450000000     0.495270000000     0.240280000000    -0.166477   
N28      N      0.495170000000     0.497570000000     0.087590000000    -0.166249   
N29      N      0.496910000000     0.997370000000     0.572780000000    -0.166858   
N30      N      0.495740000000     0.994810000000     0.419890000000    -0.166832   
N31      N      0.494760000000     0.995660000000     0.086560000000    -0.166508   
N32      N      0.496330000000     0.995660000000     0.239460000000    -0.166746   
N33      N      0.996170000000     0.496820000000     0.422040000000    -0.166401   
N34      N      0.995410000000     0.497980000000     0.575090000000    -0.166441   
N35      N      0.633350000000     0.128420000000     0.330230000000    -0.166541   
N36      N      0.863450000000     0.357100000000     0.332320000000    -0.166613   
N37      N      0.128300000000     0.633430000000     0.330960000000    -0.1666     
N38      N      0.358640000000     0.861910000000     0.329490000000    -0.166637   
N39      N      0.995040000000     0.497510000000     0.088700000000    -0.166022   
N40      N      0.995240000000     0.493680000000     0.241490000000    -0.16642    
N41      N      0.995410000000     0.995660000000     0.420410000000    -0.166926   
N42      N      0.994320000000     0.995360000000     0.573310000000    -0.166953   
N43      N      0.628680000000     0.634470000000     0.329820000000    -0.166624   
N44      N      0.858860000000     0.863100000000     0.329780000000    -0.166605   
N45      N      0.133510000000     0.129650000000     0.330700000000    -0.166509   
N46      N      0.363730000000     0.358260000000     0.331110000000    -0.166626   
N47      N      0.996610000000     0.996870000000     0.239980000000    -0.16695    
N48      N      0.994460000000     0.995990000000     0.087080000000    -0.166358   
O1       O      0.013570000000     0.970620000000     0.284650000000    -0.396869   
O2       O      0.020370000000     0.977230000000     0.375740000000    -0.396956   
O3       O      0.947600000000     0.906770000000     0.331800000000    -0.397948   
O4       O      0.086450000000     0.040990000000     0.328590000000    -0.396704   
O5       O      0.044730000000     0.085970000000     0.332250000000    -0.397278   
O6       O      0.905920000000     0.951800000000     0.328150000000    -0.397213   
O7       O      0.971290000000     0.014860000000     0.375710000000    -0.396982   
O8       O      0.979400000000     0.022780000000     0.284680000000    -0.397011   
O9       O      0.969260000000     0.511340000000     0.285940000000    -0.396885   
O10      O      0.972200000000     0.515650000000     0.377150000000    -0.396855   
O11      O      0.039060000000     0.585270000000     0.330460000000    -0.394665   
O12      O      0.905870000000     0.445380000000     0.332630000000    -0.399864   
O13      O      0.952660000000     0.405320000000     0.331480000000    -0.395436   
O14      O      0.085810000000     0.545200000000     0.332210000000    -0.400184   
O15      O      0.019950000000     0.476550000000     0.377500000000    -0.396173   
O16      O      0.021900000000     0.477680000000     0.286210000000    -0.396025   
O17      O      0.513300000000     0.969350000000     0.284110000000    -0.397356   
O18      O      0.520310000000     0.976030000000     0.375200000000    -0.39736    
O19      O      0.447400000000     0.905540000000     0.331320000000    -0.397602   
O20      O      0.586300000000     0.039750000000     0.328030000000    -0.396558   
O21      O      0.544580000000     0.084730000000     0.331690000000    -0.397754   
O22      O      0.405750000000     0.950590000000     0.327730000000    -0.397391   
O23      O      0.471330000000     0.013760000000     0.375210000000    -0.397396   
O24      O      0.479120000000     0.021480000000     0.284190000000    -0.3974     
O25      O      0.472850000000     0.516620000000     0.375960000000    -0.397516   
O26      O      0.469470000000     0.512630000000     0.284800000000    -0.397317   
O27      O      0.406240000000     0.446540000000     0.331460000000    -0.400122   
O28      O      0.539460000000     0.586330000000     0.329290000000    -0.395237   
O29      O      0.586180000000     0.546210000000     0.330870000000    -0.400138   
O30      O      0.452930000000     0.406380000000     0.330060000000    -0.395108   
O31      O      0.522110000000     0.478940000000     0.284860000000    -0.397196   
O32      O      0.520390000000     0.477300000000     0.376060000000    -0.397405   
O33      O      0.976120000000     0.952750000000     0.042370000000    -0.395334   
O34      O      0.969730000000     0.952910000000     0.951280000000    -0.397146   
O35      O      0.041170000000     0.952750000000     0.995340000000    -0.397856   
O36      O      0.904580000000     0.952710000000     0.998300000000    -0.39842    
O37      O      0.948010000000     0.039460000000     0.995290000000    -0.39846    
O38      O      0.084580000000     0.039500000000     0.998460000000    -0.39812    
O39      O      0.019650000000     0.039490000000     0.951350000000    -0.39673    
O40      O      0.012840000000     0.039320000000     0.042410000000    -0.394937   
O41      O      0.021550000000     0.540640000000     0.044110000000    -0.393051   
O42      O      0.010060000000     0.540300000000     0.953070000000    -0.394708   
O43      O      0.946560000000     0.538320000000     0.001310000000    -0.393348   
O44      O      0.085350000000     0.543160000000     0.995880000000    -0.395937   
O45      O      0.043970000000     0.456820000000     0.001430000000    -0.392738   
O46      O      0.905190000000     0.451980000000     0.995760000000    -0.395858   
O47      O      0.980650000000     0.454790000000     0.953100000000    -0.395429   
O48      O      0.968790000000     0.454460000000     0.044080000000    -0.393678   
O49      O      0.513000000000     0.039160000000     0.041960000000    -0.395334   
O50      O      0.519670000000     0.039720000000     0.950880000000    -0.397047   
O51      O      0.448070000000     0.039560000000     0.994970000000    -0.397948   
O52      O      0.584610000000     0.039480000000     0.997870000000    -0.398007   
O53      O      0.541140000000     0.952750000000     0.994580000000    -0.39828    
O54      O      0.404620000000     0.952800000000     0.997920000000    -0.398397   
O55      O      0.469570000000     0.953170000000     0.950710000000    -0.397146   
O56      O      0.476290000000     0.952590000000     0.041790000000    -0.395424   
O57      O      0.469460000000     0.454410000000     0.043020000000    -0.395335   
O58      O      0.471130000000     0.454360000000     0.951830000000    -0.397317   
O59      O      0.538570000000     0.450900000000     0.997740000000    -0.395957   
O60      O      0.405380000000     0.457620000000     0.997160000000    -0.401076   
O61      O      0.452060000000     0.544440000000     0.997700000000    -0.395923   
O62      O      0.585270000000     0.537730000000     0.997250000000    -0.400899   
O63      O      0.519680000000     0.541080000000     0.951850000000    -0.39721    
O64      O      0.521030000000     0.540830000000     0.043060000000    -0.395215   
O65      O      0.953020000000     0.906720000000     0.662090000000    -0.397009   
O66      O      0.948340000000     0.040940000000     0.664900000000    -0.395948   
O67      O      0.950810000000     0.976960000000     0.617930000000    -0.397149   
O68      O      0.950720000000     0.970790000000     0.709030000000    -0.397282   
O69      O      0.037100000000     0.023010000000     0.709070000000    -0.396739   
O70      O      0.037590000000     0.014750000000     0.618050000000    -0.396465   
O71      O      0.035110000000     0.086010000000     0.661360000000    -0.396696   
O72      O      0.039770000000     0.951870000000     0.665790000000    -0.396279   
O73      O      0.947480000000     0.406440000000     0.665550000000    -0.394453   
O74      O      0.954040000000     0.546260000000     0.664950000000    -0.399294   
O75      O      0.951370000000     0.477730000000     0.619630000000    -0.396643   
O76      O      0.950460000000     0.478660000000     0.710900000000    -0.39635    
O77      O      0.036840000000     0.512590000000     0.711200000000    -0.396274   
O78      O      0.038260000000     0.516890000000     0.619980000000    -0.39651    
O79      O      0.040920000000     0.586470000000     0.666660000000    -0.394107   
O80      O      0.034400000000     0.446670000000     0.664500000000    -0.39889    
O81      O      0.453280000000     0.907510000000     0.661440000000    -0.396966   
O82      O      0.453270000000     0.044100000000     0.664460000000    -0.396629   
O83      O      0.453510000000     0.979240000000     0.617420000000    -0.397738   
O84      O      0.453140000000     0.972430000000     0.708460000000    -0.397601   
O85      O      0.539800000000     0.022490000000     0.708600000000    -0.396858   
O86      O      0.540170000000     0.015690000000     0.617500000000    -0.396836   
O87      O      0.540120000000     0.087440000000     0.661420000000    -0.397033   
O88      O      0.540110000000     0.950900000000     0.664700000000    -0.397404   
O89      O      0.453600000000     0.407720000000     0.662160000000    -0.397073   
O90      O      0.453610000000     0.544260000000     0.665570000000    -0.397004   
O91      O      0.453860000000     0.479750000000     0.618320000000    -0.397074   
O92      O      0.453560000000     0.472370000000     0.709420000000    -0.397139   
O93      O      0.540210000000     0.522550000000     0.709520000000    -0.397101   
O94      O      0.540500000000     0.516030000000     0.618400000000    -0.396995   
O95      O      0.540460000000     0.587630000000     0.662440000000    -0.396855   
O96      O      0.540420000000     0.451030000000     0.665470000000    -0.396947   


