data_structure

_audit_creation_method RASPA-1.0
_audit_creation_date 2023-5-23
_audit_author_name 'Poobodin Mano'

_cell_length_a    44.4262
_cell_length_b    44.4312
_cell_length_c    29.6565
_cell_angle_alpha 90
_cell_angle_beta  90
_cell_angle_gamma 90
_cell_volume      58539.2

_symmetry_cell_setting          triclinic
_symmetry_space_group_name_Hall 'P 1'
_symmetry_space_group_name_H-M  'P 1'
_symmetry_Int_Tables_number     1

_symmetry_equiv_pos_as_xyz 'x,y,z'

loop_
_atom_site_label
_atom_site_type_symbol
_atom_site_fract_x
_atom_site_fract_y
_atom_site_fract_z
_atom_site_charge
C1       C      0.557690000000     0.829260000000     0.007430000000     0.40365    
C2       C      0.438350000000     0.831190000000     0.002600000000     0.403726   
C3       C      0.496550000000     0.828490000000     0.094820000000     0.40275    
C4       C      0.499400000000     0.831930000000     0.915890000000     0.403088   
C5       C      0.437540000000     0.829570000000     0.504840000000     0.404328   
C6       C      0.557090000000     0.830080000000     0.506320000000     0.404282   
C7       C      0.497630000000     0.827340000000     0.415920000000     0.40292    
C8       C      0.496950000000     0.832330000000     0.594990000000     0.403544   
C9       C      0.830060000000     0.435930000000     0.995250000000     0.403287   
C10      C      0.828890000000     0.555320000000     0.999210000000     0.403273   
C11      C      0.829650000000     0.496980000000     0.907520000000     0.402768   
C12      C      0.829360000000     0.494410000000     0.086560000000     0.403225   
C13      C      0.829300000000     0.439420000000     0.498670000000     0.403765   
C14      C      0.830090000000     0.558810000000     0.494770000000     0.40361    
C15      C      0.829500000000     0.497790000000     0.407410000000     0.403271   
C16      C      0.829810000000     0.500300000000     0.586460000000     0.402753   
C17      C      0.559290000000     0.161820000000     0.983950000000     0.403689   
C18      C      0.439970000000     0.164270000000     0.995700000000     0.404051   
C19      C      0.503200000000     0.165650000000     0.079130000000     0.402571   
C20      C      0.495850000000     0.160510000000     0.900280000000     0.402346   
C21      C      0.436890000000     0.162490000000     0.487760000000     0.403134   
C22      C      0.556310000000     0.164730000000     0.491590000000     0.40333    
C23      C      0.498050000000     0.165430000000     0.400100000000     0.402483   
C24      C      0.495230000000     0.161700000000     0.579150000000     0.402186   
C25      C      0.164400000000     0.557370000000     0.994010000000     0.403348   
C26      C      0.164950000000     0.438060000000     0.000470000000     0.403643   
C27      C      0.164610000000     0.499460000000     0.086810000000     0.402591   
C28      C      0.164650000000     0.495930000000     0.907820000000     0.402726   
C29      C      0.164290000000     0.437000000000     0.500550000000     0.40287    
C30      C      0.163870000000     0.556400000000     0.494170000000     0.402949   
C31      C      0.164100000000     0.494990000000     0.407790000000     0.402698   
C32      C      0.164170000000     0.498450000000     0.586800000000     0.402687   
C33      C      0.829590000000     0.769130000000     0.997850000000     0.403729   
C34      C      0.832540000000     0.888460000000     0.986700000000     0.403019   
C35      C      0.771480000000     0.830090000000     0.996460000000     0.403937   
C36      C      0.890940000000     0.827320000000     0.988650000000     0.40314    
C37      C      0.831200000000     0.772670000000     0.494250000000     0.403666   
C38      C      0.830180000000     0.891870000000     0.505410000000     0.402773   
C39      C      0.770970000000     0.831930000000     0.504950000000     0.403885   
C40      C      0.890190000000     0.832860000000     0.494440000000     0.402966   
C41      C      0.831430000000     0.222030000000     0.986470000000     0.403303   
C42      C      0.834320000000     0.102670000000     0.980100000000     0.402523   
C43      C      0.773160000000     0.160740000000     0.978560000000     0.403268   
C44      C      0.892480000000     0.163780000000     0.987540000000     0.402433   
C45      C      0.830130000000     0.225600000000     0.506990000000     0.404016   
C46      C      0.829350000000     0.106080000000     0.512680000000     0.403469   
C47      C      0.770130000000     0.166320000000     0.504350000000     0.403732   
C48      C      0.889560000000     0.165430000000     0.515430000000     0.402917   
C49      C      0.166610000000     0.224270000000     0.006440000000     0.404224   
C50      C      0.166670000000     0.104760000000     0.998960000000     0.402803   
C51      C      0.226260000000     0.165050000000     0.006090000000     0.403956   
C52      C      0.106710000000     0.164500000000     0.999290000000     0.40301    
C53      C      0.162220000000     0.223250000000     0.513440000000     0.40311    
C54      C      0.164750000000     0.103830000000     0.506900000000     0.402431   
C55      C      0.223190000000     0.164600000000     0.504420000000     0.403221   
C56      C      0.103910000000     0.162350000000     0.515690000000     0.402205   
C57      C      0.165820000000     0.771000000000     0.981870000000     0.403938   
C58      C      0.164720000000     0.890530000000     0.988050000000     0.403048   
C59      C      0.224840000000     0.830790000000     0.984670000000     0.404025   
C60      C      0.105240000000     0.830190000000     0.985150000000     0.403186   
C61      C      0.162350000000     0.770280000000     0.487200000000     0.403396   
C62      C      0.165590000000     0.889610000000     0.495580000000     0.402612   
C63      C      0.223720000000     0.828450000000     0.494730000000     0.403846   
C64      C      0.104390000000     0.831590000000     0.488440000000     0.402881   
C65      C      0.165780000000     0.053910000000     0.545260000000    -0.0224295  
C66      C      0.165820000000     0.939590000000     0.457580000000    -0.0225414  
C67      C      0.167070000000     0.937620000000     0.539470000000    -0.0225509  
C68      C      0.166790000000     0.969290000000     0.523480000000     0.0136505  
C69      C      0.166240000000     0.970370000000     0.476780000000     0.0137472  
C70      C      0.165910000000     0.997800000000     0.453430000000    -0.0659909  
C71      C      0.165640000000     0.055760000000     0.463340000000    -0.0225826  
C72      C      0.166720000000     0.995640000000     0.549480000000    -0.0657835  
C73      C      0.166020000000     0.024140000000     0.479420000000     0.0137273  
C74      C      0.166260000000     0.023080000000     0.526130000000     0.0134455  
C75      C      0.167150000000     0.056700000000     0.955240000000    -0.0224383  
C76      C      0.164610000000     0.938640000000     0.031530000000    -0.0224994  
C77      C      0.165150000000     0.940440000000     0.949610000000    -0.0224597  
C78      C      0.165500000000     0.971280000000     0.968710000000     0.0134579  
C79      C      0.165080000000     0.970260000000     0.015420000000     0.0139878  
C80      C      0.165140000000     0.996610000000     0.041370000000    -0.0660012  
C81      C      0.165820000000     0.054830000000     0.037140000000    -0.0224734  
C82      C      0.166240000000     0.998700000000     0.945320000000    -0.0657233  
C83      C      0.165760000000     0.024020000000     0.017990000000     0.0138051  
C84      C      0.166410000000     0.025060000000     0.971290000000     0.0134269  
C85      C      0.938180000000     0.166000000000     0.558760000000    -0.022378   
C86      C      0.054480000000     0.160540000000     0.477160000000    -0.0227     
C87      C      0.055280000000     0.163660000000     0.558970000000    -0.0224247  
C88      C      0.023730000000     0.163470000000     0.541890000000     0.0126754  
C89      C      0.023540000000     0.161720000000     0.495240000000     0.0146069  
C90      C      0.996730000000     0.161490000000     0.470610000000    -0.0669385  
C91      C      0.938990000000     0.163210000000     0.476930000000    -0.0225617  
C92      C      0.996730000000     0.164970000000     0.566570000000    -0.0649395  
C93      C      0.969920000000     0.163020000000     0.495130000000     0.0146396  
C94      C      0.969730000000     0.164660000000     0.541790000000     0.0127195  
C95      C      0.942500000000     0.164190000000     0.949680000000    -0.0225578  
C96      C      0.056750000000     0.164460000000     0.037570000000    -0.0222976  
C97      C      0.058660000000     0.164860000000     0.955660000000    -0.0225265  
C98      C      0.027020000000     0.164810000000     0.971690000000     0.0138147  
C99      C      0.025930000000     0.164770000000     0.018400000000     0.0135487  
C100     C      0.998460000000     0.164940000000     0.041710000000    -0.0658618  
C101     C      0.940440000000     0.165090000000     0.031580000000    -0.0224785  
C102     C      0.000710000000     0.164650000000     0.945660000000    -0.0661546  
C103     C      0.972130000000     0.164980000000     0.015660000000     0.0137351  
C104     C      0.973260000000     0.164650000000     0.968950000000     0.0137734  
C105     C      0.939990000000     0.834510000000     0.532230000000    -0.0225313  
C106     C      0.055170000000     0.831310000000     0.446910000000    -0.022339   
C107     C      0.055600000000     0.834010000000     0.528770000000    -0.0224833  
C108     C      0.024390000000     0.833770000000     0.511660000000     0.0144081  
C109     C      0.023920000000     0.832240000000     0.464990000000     0.0129118  
C110     C      0.996630000000     0.831560000000     0.441080000000    -0.0652041  
C111     C      0.938320000000     0.831940000000     0.450390000000    -0.0223198  
C112     C      0.997900000000     0.834670000000     0.537070000000    -0.0668003  
C113     C      0.970000000000     0.832510000000     0.466610000000     0.0129259  
C114     C      0.970760000000     0.834000000000     0.513290000000     0.0145103  
C115     C      0.831200000000     0.941780000000     0.467890000000    -0.0225658  
C116     C      0.827660000000     0.056740000000     0.553880000000    -0.0223932  
C117     C      0.830680000000     0.057370000000     0.472040000000    -0.0224443  
C118     C      0.830100000000     0.026110000000     0.488950000000     0.0142184  
C119     C      0.828420000000     0.025530000000     0.535610000000     0.0129715  
C120     C      0.827730000000     0.998170000000     0.559350000000    -0.0651869  
C121     C      0.828450000000     0.939890000000     0.549710000000    -0.0224403  
C122     C      0.831110000000     0.999700000000     0.463400000000    -0.0664754  
C123     C      0.828780000000     0.971610000000     0.533670000000     0.0130531  
C124     C      0.830390000000     0.972490000000     0.487010000000     0.0143779  
C125     C      0.939560000000     0.826300000000     0.945910000000    -0.0223996  
C126     C      0.056380000000     0.829130000000     0.026500000000    -0.0225316  
C127     C      0.056050000000     0.829370000000     0.944530000000    -0.0223533  
C128     C      0.024870000000     0.828400000000     0.962360000000     0.0130877  
C129     C      0.025100000000     0.828450000000     0.009100000000     0.0142801  
C130     C      0.998360000000     0.828050000000     0.034060000000    -0.0663931  
C131     C      0.940360000000     0.827310000000     0.027850000000    -0.022537   
C132     C      0.997820000000     0.827610000000     0.937950000000    -0.0654984  
C133     C      0.971370000000     0.827400000000     0.009690000000     0.0142489  
C134     C      0.971030000000     0.827020000000     0.962950000000     0.0132273  
C135     C      0.835230000000     0.938290000000     0.024260000000    -0.0225045  
C136     C      0.833490000000     0.053410000000     0.938630000000    -0.0223744  
C137     C      0.836580000000     0.053880000000     0.020460000000    -0.0224778  
C138     C      0.835810000000     0.022660000000     0.003440000000     0.0144963  
C139     C      0.834020000000     0.022170000000     0.956780000000     0.0127044  
C140     C      0.832700000000     0.994850000000     0.932980000000    -0.0649833  
C141     C      0.832060000000     0.936550000000     0.942480000000    -0.0223341  
C142     C      0.836400000000     0.996190000000     0.028910000000    -0.0668024  
C143     C      0.833330000000     0.968240000000     0.958580000000     0.0128103  
C144     C      0.835130000000     0.969030000000     0.005220000000     0.0146521  
C145     C      0.140770000000     0.605470000000     0.514820000000    -0.0229806  
C146     C      0.178310000000     0.721270000000     0.453690000000    -0.0227719  
C147     C      0.143480000000     0.721530000000     0.516920000000    -0.0231523  
C148     C      0.150400000000     0.690290000000     0.502980000000     0.0147021  
C149     C      0.171850000000     0.690060000000     0.469040000000     0.0136083  
C150     C      0.185270000000     0.663070000000     0.454810000000    -0.0656161  
C151     C      0.185450000000     0.605100000000     0.467470000000    -0.0227732  
C152     C      0.138240000000     0.663570000000     0.520160000000    -0.0666064  
C153     C      0.174390000000     0.636360000000     0.474160000000     0.0136487  
C154     C      0.150190000000     0.636580000000     0.503650000000     0.0146609  
C155     C      0.178700000000     0.272600000000     0.545350000000    -0.0227496  
C156     C      0.141130000000     0.387710000000     0.481260000000    -0.0230266  
C157     C      0.186230000000     0.388560000000     0.527680000000    -0.0227465  
C158     C      0.174990000000     0.357260000000     0.522240000000     0.0135535  
C159     C      0.150500000000     0.356730000000     0.493300000000     0.0147359  
C160     C      0.138200000000     0.329580000000     0.478050000000    -0.0666652  
C161     C      0.143080000000     0.271690000000     0.483130000000    -0.0231835  
C162     C      0.185940000000     0.330770000000     0.542210000000    -0.0655395  
C163     C      0.150370000000     0.303060000000     0.495860000000     0.0147846  
C164     C      0.172220000000     0.303650000000     0.529210000000     0.0135189  
C165     C      0.186400000000     0.606710000000     0.015680000000    -0.0229374  
C166     C      0.151480000000     0.721630000000     0.947860000000    -0.0226361  
C167     C      0.183220000000     0.722680000000     0.014640000000    -0.0229694  
C168     C      0.177070000000     0.691300000000     0.000740000000     0.0149875  
C169     C      0.157190000000     0.690610000000     0.964730000000     0.0136009  
C170     C      0.144350000000     0.663440000000     0.950110000000    -0.0654597  
C171     C      0.143530000000     0.605660000000     0.964730000000    -0.0226982  
C172     C      0.188550000000     0.664840000000     0.019750000000    -0.0668078  
C173     C      0.154370000000     0.637000000000     0.971300000000     0.0135237  
C174     C      0.177360000000     0.637640000000     0.002870000000     0.0150017  
C175     C      0.183820000000     0.273060000000     0.974960000000    -0.0229023  
C176     C      0.144130000000     0.389390000000     0.028490000000    -0.0228757  
C177     C      0.187340000000     0.389040000000     0.978140000000    -0.0229901  
C178     C      0.178120000000     0.357930000000     0.989670000000     0.0145308  
C179     C      0.154910000000     0.358140000000     0.020900000000     0.0140029  
C180     C      0.144640000000     0.331400000000     0.040920000000    -0.0657562  
C181     C      0.151570000000     0.273200000000     0.041210000000    -0.0227887  
C182     C      0.189320000000     0.330970000000     0.971950000000    -0.066479   
C183     C      0.157460000000     0.304430000000     0.025470000000     0.0140699  
C184     C      0.177610000000     0.304250000000     0.989780000000     0.0144787  
C185     C      0.137430000000     0.492670000000     0.834410000000    -0.0224643  
C186     C      0.191430000000     0.501630000000     0.660200000000    -0.0224983  
C187     C      0.137030000000     0.495760000000     0.660280000000    -0.0225506  
C188     C      0.148820000000     0.496280000000     0.707050000000     0.0136136  
C189     C      0.179840000000     0.499640000000     0.707010000000     0.0136105  
C190     C      0.196320000000     0.500640000000     0.747280000000    -0.0661363  
C191     C      0.191820000000     0.498640000000     0.834350000000    -0.0225403  
C192     C      0.132540000000     0.493700000000     0.747340000000    -0.0660748  
C193     C      0.180030000000     0.498080000000     0.787570000000     0.0136157  
C194     C      0.149020000000     0.494700000000     0.787600000000     0.0135706  
C195     C      0.191770000000     0.496710000000     0.160270000000    -0.0225599  
C196     C      0.136900000000     0.497740000000     0.334340000000    -0.0225557  
C197     C      0.191350000000     0.492300000000     0.334350000000    -0.0225841  
C198     C      0.179750000000     0.494560000000     0.287560000000     0.0136733  
C199     C      0.148710000000     0.497670000000     0.287560000000     0.0135919  
C200     C      0.132420000000     0.500440000000     0.247300000000    -0.0660421  
C201     C      0.137340000000     0.502200000000     0.160240000000    -0.0224911  
C202     C      0.196260000000     0.494040000000     0.247300000000    -0.0661575  
C203     C      0.148920000000     0.499920000000     0.207030000000     0.0135659  
C204     C      0.179970000000     0.496800000000     0.207030000000     0.0136514  
C205     C      0.387400000000     0.184370000000     0.465210000000    -0.0229685  
C206     C      0.273110000000     0.146670000000     0.531080000000    -0.0228938  
C207     C      0.270890000000     0.181350000000     0.467750000000    -0.0228848  
C208     C      0.302610000000     0.173970000000     0.479130000000     0.014013   
C209     C      0.303690000000     0.152560000000     0.513090000000     0.014302   
C210     C      0.330910000000     0.139260000000     0.526230000000    -0.0662433  
C211     C      0.388540000000     0.139530000000     0.512160000000    -0.0228253  
C212     C      0.329020000000     0.186320000000     0.460970000000    -0.0660729  
C213     C      0.357170000000     0.150140000000     0.505730000000     0.0142688  
C214     C      0.356390000000     0.174390000000     0.476360000000     0.0141048  
C215     C      0.606080000000     0.144510000000     0.467450000000    -0.0229115  
C216     C      0.720190000000     0.182370000000     0.533770000000    -0.0227621  
C217     C      0.722410000000     0.151300000000     0.466350000000    -0.0228798  
C218     C      0.690700000000     0.157000000000     0.479670000000     0.014194   
C219     C      0.689520000000     0.176500000000     0.516120000000     0.0143007  
C220     C      0.662120000000     0.188170000000     0.531700000000    -0.0662052  
C221     C      0.604320000000     0.186850000000     0.519340000000    -0.0228703  
C222     C      0.664400000000     0.144720000000     0.461070000000    -0.065984   
C223     C      0.635880000000     0.177510000000     0.510890000000     0.014351   
C224     C      0.636930000000     0.154850000000     0.478800000000     0.0141649  
C225     C      0.275490000000     0.149890000000     0.039770000000    -0.0228397  
C226     C      0.390770000000     0.187720000000     0.976780000000    -0.0227795  
C227     C      0.391590000000     0.143270000000     0.024580000000    -0.0227587  
C228     C      0.360280000000     0.154260000000     0.018420000000     0.0140952  
C229     C      0.359760000000     0.178230000000     0.988510000000     0.0144068  
C230     C      0.332600000000     0.189660000000     0.971780000000    -0.0663758  
C231     C      0.274730000000     0.183560000000     0.975140000000    -0.0229782  
C232     C      0.333740000000     0.143370000000     0.038290000000    -0.0658146  
C233     C      0.306060000000     0.177380000000     0.989380000000     0.0144627  
C234     C      0.306600000000     0.156430000000     0.024010000000     0.014173   
C235     C      0.724320000000     0.141430000000     0.007340000000    -0.0227219  
C236     C      0.608030000000     0.183300000000     0.957130000000    -0.0229198  
C237     C      0.608250000000     0.137910000000     0.002930000000    -0.0224145  
C238     C      0.639410000000     0.147600000000     0.992520000000     0.0141276  
C239     C      0.639270000000     0.172210000000     0.963810000000     0.0139899  
C240     C      0.666060000000     0.183520000000     0.945280000000    -0.0658833  
C241     C      0.724290000000     0.176930000000     0.944950000000    -0.0228401  
C242     C      0.666350000000     0.135640000000     0.009240000000    -0.0659976  
C243     C      0.693010000000     0.170090000000     0.959600000000     0.0139256  
C244     C      0.693130000000     0.148240000000     0.992960000000     0.0141915  
C245     C      0.492290000000     0.186870000000     0.826750000000    -0.0225736  
C246     C      0.496140000000     0.133310000000     0.652000000000    -0.0224081  
C247     C      0.491980000000     0.187850000000     0.653210000000    -0.0227781  
C248     C      0.492440000000     0.175630000000     0.699670000000     0.0142322  
C249     C      0.494600000000     0.144510000000     0.699170000000     0.0129458  
C250     C      0.495420000000     0.127780000000     0.739370000000    -0.0654401  
C251     C      0.494930000000     0.132230000000     0.826990000000    -0.0226987  
C252     C      0.491400000000     0.191790000000     0.740100000000    -0.0666696  
C253     C      0.494110000000     0.143990000000     0.779970000000     0.0131786  
C254     C      0.492360000000     0.175130000000     0.780130000000     0.0140566  
C255     C      0.503450000000     0.139360000000     0.152880000000    -0.0225774  
C256     C      0.501210000000     0.193650000000     0.327210000000    -0.0224588  
C257     C      0.498520000000     0.139010000000     0.326190000000    -0.0226179  
C258     C      0.500660000000     0.151060000000     0.279760000000     0.0141957  
C259     C      0.502040000000     0.182220000000     0.280110000000     0.013027   
C260     C      0.503730000000     0.198820000000     0.239850000000    -0.0654696  
C261     C      0.505220000000     0.194030000000     0.152280000000    -0.0225945  
C262     C      0.501150000000     0.134720000000     0.239460000000    -0.0667022  
C263     C      0.504130000000     0.182420000000     0.199370000000     0.0131308  
C264     C      0.503010000000     0.151240000000     0.199400000000     0.0141035  
C265     C      0.813470000000     0.275010000000     0.537460000000    -0.0226975  
C266     C      0.850780000000     0.390190000000     0.474840000000    -0.022824   
C267     C      0.807390000000     0.390900000000     0.524810000000    -0.0227443  
C268     C      0.817430000000     0.359560000000     0.516320000000     0.0142698  
C269     C      0.840740000000     0.359110000000     0.485260000000     0.0142763  
C270     C      0.851680000000     0.331980000000     0.467540000000    -0.0661303  
C271     C      0.845890000000     0.273890000000     0.471410000000    -0.0228146  
C272     C      0.806800000000     0.333000000000     0.536220000000    -0.0661691  
C273     C      0.839480000000     0.305360000000     0.485150000000     0.0143191  
C274     C      0.819250000000     0.305920000000     0.520720000000     0.0142077  
C275     C      0.808230000000     0.607780000000     0.469820000000    -0.0226638  
C276     C      0.850240000000     0.723560000000     0.522160000000    -0.0230535  
C277     C      0.814600000000     0.724110000000     0.459950000000    -0.022632   
C278     C      0.821420000000     0.692710000000     0.473980000000     0.0136843  
C279     C      0.843300000000     0.692530000000     0.507300000000     0.0146624  
C280     C      0.855840000000     0.665620000000     0.523160000000    -0.0665926  
C281     C      0.853500000000     0.607620000000     0.515880000000    -0.0228049  
C282     C      0.807960000000     0.665900000000     0.459170000000    -0.0657258  
C283     C      0.843820000000     0.638840000000     0.506030000000     0.0146196  
C284     C      0.819240000000     0.638950000000     0.477230000000     0.0137118  
C285     C      0.852940000000     0.387570000000     0.970350000000    -0.0227465  
C286     C      0.813850000000     0.270140000000     0.020890000000    -0.0227638  
C287     C      0.848600000000     0.271670000000     0.957590000000    -0.0228015  
C288     C      0.841880000000     0.302490000000     0.973810000000     0.0141108  
C289     C      0.820460000000     0.301710000000     0.007780000000     0.0141946  
C290     C      0.807480000000     0.328220000000     0.024540000000    -0.06617    
C291     C      0.808200000000     0.386480000000     0.017530000000    -0.0227054  
C292     C      0.854510000000     0.329700000000     0.959190000000    -0.0661401  
C293     C      0.818750000000     0.355480000000     0.007690000000     0.0142193  
C294     C      0.842970000000     0.356150000000     0.978230000000     0.0141442  
C295     C      0.843970000000     0.720580000000     0.034160000000    -0.0228058  
C296     C      0.806440000000     0.604170000000     0.976000000000    -0.0229193  
C297     C      0.849900000000     0.604230000000     0.025830000000    -0.0228769  
C298     C      0.839390000000     0.635430000000     0.017210000000     0.0141989  
C299     C      0.816030000000     0.635380000000     0.986230000000     0.0143769  
C300     C      0.805120000000     0.662180000000     0.967520000000    -0.0663775  
C301     C      0.811480000000     0.720090000000     0.968190000000    -0.0228263  
C302     C      0.850110000000     0.662360000000     0.036050000000    -0.0659529  
C303     C      0.817280000000     0.689050000000     0.984170000000     0.0143414  
C304     C      0.837560000000     0.689210000000     0.019680000000     0.0142541  
C305     C      0.857080000000     0.498870000000     0.834170000000    -0.0224754  
C306     C      0.802490000000     0.501150000000     0.659900000000    -0.0226006  
C307     C      0.857200000000     0.500000000000     0.659920000000    -0.0225319  
C308     C      0.845430000000     0.500010000000     0.706730000000     0.013587   
C309     C      0.814230000000     0.500300000000     0.706700000000     0.0136611  
C310     C      0.797720000000     0.499510000000     0.746960000000    -0.066202   
C311     C      0.802380000000     0.497540000000     0.834010000000    -0.0225686  
C312     C      0.861880000000     0.499620000000     0.747050000000    -0.0660268  
C313     C      0.814170000000     0.498800000000     0.787260000000     0.0136731  
C314     C      0.845370000000     0.499200000000     0.787330000000     0.0135543  
C315     C      0.856770000000     0.497070000000     0.333970000000    -0.0225243  
C316     C      0.801970000000     0.494580000000     0.159960000000    -0.022389   
C317     C      0.856680000000     0.493610000000     0.159950000000    -0.022527   
C318     C      0.844940000000     0.494390000000     0.206720000000     0.0137543  
C319     C      0.813730000000     0.494640000000     0.206750000000     0.013628   
C320     C      0.797270000000     0.495100000000     0.247040000000    -0.0660373  
C321     C      0.802060000000     0.496000000000     0.334110000000    -0.022359   
C322     C      0.861440000000     0.495150000000     0.246960000000    -0.0662309  
C323     C      0.813780000000     0.495550000000     0.287300000000     0.0136134  
C324     C      0.844980000000     0.495860000000     0.287250000000     0.0137465  
C325     C      0.388360000000     0.806730000000     0.526420000000    -0.0227672  
C326     C      0.273240000000     0.846120000000     0.466250000000    -0.0228085  
C327     C      0.271910000000     0.810810000000     0.528860000000    -0.0227529  
C328     C      0.303450000000     0.817890000000     0.516110000000     0.0140339  
C329     C      0.304080000000     0.839630000000     0.482610000000     0.0143515  
C330     C      0.331160000000     0.852830000000     0.468630000000    -0.0662827  
C331     C      0.388950000000     0.852080000000     0.480530000000    -0.0226854  
C332     C      0.330060000000     0.805100000000     0.532840000000    -0.0660611  
C333     C      0.357680000000     0.841480000000     0.487710000000     0.0143736  
C334     C      0.357240000000     0.816920000000     0.516510000000     0.0140744  
C335     C      0.606200000000     0.807930000000     0.529970000000    -0.0225466  
C336     C      0.721680000000     0.850560000000     0.477160000000    -0.0230533  
C337     C      0.722550000000     0.814590000000     0.538940000000    -0.0226524  
C338     C      0.691090000000     0.821320000000     0.525140000000     0.0136889  
C339     C      0.690720000000     0.843390000000     0.492100000000     0.0147272  
C340     C      0.663720000000     0.855970000000     0.476690000000    -0.0665857  
C341     C      0.605760000000     0.853540000000     0.484660000000    -0.0228738  
C342     C      0.664370000000     0.807710000000     0.540010000000    -0.0656998  
C343     C      0.637040000000     0.843790000000     0.493910000000     0.0147038  
C344     C      0.637330000000     0.819020000000     0.522330000000     0.0136909  
C345     C      0.272660000000     0.813150000000     0.018780000000    -0.0229012  
C346     C      0.390470000000     0.853080000000     0.973660000000    -0.0228011  
C347     C      0.388620000000     0.809350000000     0.022880000000    -0.0230191  
C348     C      0.357880000000     0.818820000000     0.009710000000     0.0149403  
C349     C      0.359010000000     0.842340000000     0.979060000000     0.0136368  
C350     C      0.332890000000     0.852850000000     0.957520000000    -0.0655753  
C351     C      0.274730000000     0.845990000000     0.953250000000    -0.0227308  
C352     C      0.330420000000     0.807490000000     0.025400000000    -0.0667391  
C353     C      0.305480000000     0.839920000000     0.970910000000     0.0137378  
C354     C      0.304250000000     0.819440000000     0.006120000000     0.014865   
C355     C      0.606130000000     0.807300000000     0.981560000000    -0.0228452  
C356     C      0.723500000000     0.845810000000     0.033250000000    -0.0227175  
C357     C      0.721780000000     0.813930000000     0.966660000000    -0.0225632  
C358     C      0.691040000000     0.819460000000     0.984230000000     0.0140897  
C359     C      0.691880000000     0.839370000000     0.020180000000     0.0143254  
C360     C      0.665370000000     0.851270000000     0.038660000000    -0.0660576  
C361     C      0.607030000000     0.850140000000     0.032560000000    -0.0228601  
C362     C      0.663870000000     0.807040000000     0.969060000000    -0.0661306  
C363     C      0.638090000000     0.840350000000     0.021340000000     0.0142896  
C364     C      0.637470000000     0.817360000000     0.989770000000     0.0142199  
C365     C      0.497620000000     0.805520000000     0.842060000000    -0.0225095  
C366     C      0.498460000000     0.860690000000     0.668100000000    -0.0224268  
C367     C      0.495780000000     0.806050000000     0.668700000000    -0.0223891  
C368     C      0.496890000000     0.817880000000     0.715210000000     0.0141897  
C369     C      0.498620000000     0.849030000000     0.715140000000     0.0131575  
C370     C      0.500340000000     0.865370000000     0.755590000000    -0.0655006  
C371     C      0.501590000000     0.860080000000     0.842930000000    -0.02229    
C372     C      0.496440000000     0.801320000000     0.755300000000    -0.0668082  
C373     C      0.500060000000     0.848730000000     0.795860000000     0.0130034  
C374     C      0.497980000000     0.817600000000     0.795580000000     0.0142668  
C375     C      0.497520000000     0.800150000000     0.167650000000    -0.0223744  
C376     C      0.496240000000     0.853810000000     0.342350000000    -0.0225206  
C377     C      0.498370000000     0.799140000000     0.342560000000    -0.022601   
C378     C      0.497520000000     0.810920000000     0.295570000000     0.0132064  
C379     C      0.496160000000     0.842080000000     0.295740000000     0.0140405  
C380     C      0.494970000000     0.858750000000     0.255740000000    -0.0666654  
C381     C      0.494400000000     0.854760000000     0.168860000000    -0.0226251  
C382     C      0.498050000000     0.794670000000     0.254970000000    -0.0655683  
C383     C      0.495340000000     0.842560000000     0.215310000000     0.0141911  
C384     C      0.496970000000     0.811410000000     0.214810000000     0.0130416  
Cu1      Cu     0.498450000000     0.858020000000     0.006380000000     0.841136   
Cu2      Cu     0.497580000000     0.802480000000     0.004280000000     0.845624   
Cu3      Cu     0.497220000000     0.857630000000     0.503110000000     0.847746   
Cu4      Cu     0.497420000000     0.801960000000     0.507870000000     0.8439     
Cu5      Cu     0.801700000000     0.495350000000     0.996950000000     0.843957   
Cu6      Cu     0.857300000000     0.495920000000     0.997190000000     0.842836   
Cu7      Cu     0.801850000000     0.499300000000     0.497030000000     0.842533   
Cu8      Cu     0.857460000000     0.498910000000     0.496780000000     0.845075   
Cu9      Cu     0.500080000000     0.190880000000     0.987220000000     0.843942   
Cu10     Cu     0.499150000000     0.135240000000     0.992200000000     0.844763   
Cu11     Cu     0.496050000000     0.191360000000     0.490760000000     0.841233   
Cu12     Cu     0.497160000000     0.135830000000     0.488480000000     0.842724   
Cu13     Cu     0.136840000000     0.497590000000     0.997290000000     0.839829   
Cu14     Cu     0.192380000000     0.497850000000     0.997310000000     0.844941   
Cu15     Cu     0.136370000000     0.496600000000     0.497340000000     0.845098   
Cu16     Cu     0.191930000000     0.496800000000     0.497260000000     0.839524   
Cu17     Cu     0.832670000000     0.830610000000     0.033940000000     0.848865   
Cu18     Cu     0.829690000000     0.826920000000     0.950710000000     0.842057   
Cu19     Cu     0.832350000000     0.830370000000     0.541180000000     0.84315    
Cu20     Cu     0.828750000000     0.834110000000     0.458340000000     0.843239   
Cu21     Cu     0.834370000000     0.163620000000     0.941570000000     0.838867   
Cu22     Cu     0.831210000000     0.161140000000     0.024580000000     0.846432   
Cu23     Cu     0.831690000000     0.164770000000     0.468430000000     0.853303   
Cu24     Cu     0.827920000000     0.166970000000     0.551700000000     0.837119   
Cu25     Cu     0.165220000000     0.163170000000     0.044420000000     0.841619   
Cu26     Cu     0.167800000000     0.165940000000     0.961090000000     0.848304   
Cu27     Cu     0.165540000000     0.162360000000     0.551730000000     0.836339   
Cu28     Cu     0.161650000000     0.164770000000     0.468790000000     0.847802   
Cu29     Cu     0.164730000000     0.831920000000     0.943110000000     0.840122   
Cu30     Cu     0.165400000000     0.829550000000     0.026560000000     0.850466   
Cu31     Cu     0.165300000000     0.831410000000     0.449880000000     0.838973   
Cu32     Cu     0.162880000000     0.828420000000     0.532900000000     0.846752   
H1       H      0.147150000000     0.932670000000     0.560900000000     0.0436658  
H2       H      0.145200000000     0.935760000000     0.437160000000     0.0445851  
H3       H      0.165500000000     0.998600000000     0.416960000000     0.0442743  
H4       H      0.166920000000     0.994840000000     0.585960000000     0.0442633  
H5       H      0.145420000000     0.057540000000     0.566350000000     0.0444217  
H6       H      0.185940000000     0.060920000000     0.442860000000     0.0439786  
H7       H      0.187800000000     0.932670000000     0.559080000000     0.0439113  
H8       H      0.185850000000     0.935540000000     0.435960000000     0.0434528  
H9       H      0.145280000000     0.060430000000     0.442720000000     0.0436415  
H10      H      0.186080000000     0.058240000000     0.566190000000     0.0434117  
H11      H      0.185510000000     0.936160000000     0.928780000000     0.0437207  
H12      H      0.184740000000     0.933520000000     0.052420000000     0.044074   
H13      H      0.164720000000     0.995830000000     0.077850000000     0.0442933  
H14      H      0.166650000000     0.999470000000     0.908850000000     0.0442775  
H15      H      0.187920000000     0.061320000000     0.935540000000     0.0438614  
H16      H      0.145220000000     0.059020000000     0.057450000000     0.0443132  
H17      H      0.144850000000     0.936730000000     0.928440000000     0.0441905  
H18      H      0.144080000000     0.933970000000     0.051760000000     0.043718   
H19      H      0.185870000000     0.058570000000     0.058840000000     0.0436152  
H20      H      0.147270000000     0.061920000000     0.933870000000     0.0437302  
H21      H      0.059680000000     0.144010000000     0.581190000000     0.04341    
H22      H      0.058410000000     0.139300000000     0.458250000000     0.0443637  
H23      H      0.996740000000     0.160230000000     0.434150000000     0.0442112  
H24      H      0.996730000000     0.166360000000     0.603000000000     0.0442898  
H25      H      0.933030000000     0.146530000000     0.580960000000     0.0436861  
H26      H      0.935300000000     0.182950000000     0.454550000000     0.0439677  
H27      H      0.060210000000     0.184610000000     0.578050000000     0.0437929  
H28      H      0.058970000000     0.179870000000     0.454340000000     0.0440821  
H29      H      0.934260000000     0.142340000000     0.457500000000     0.0443321  
H30      H      0.934000000000     0.187120000000     0.577840000000     0.043521   
H31      H      0.063600000000     0.185330000000     0.935420000000     0.0440903  
H32      H      0.060850000000     0.184640000000     0.058870000000     0.0434763  
H33      H      0.997630000000     0.164990000000     0.078190000000     0.0441786  
H34      H      0.001540000000     0.164470000000     0.909180000000     0.0443362  
H35      H      0.938400000000     0.184260000000     0.928190000000     0.0435463  
H36      H      0.935530000000     0.145060000000     0.052790000000     0.0435423  
H37      H      0.063560000000     0.144660000000     0.934810000000     0.0436857  
H38      H      0.060580000000     0.143980000000     0.058300000000     0.0442048  
H39      H      0.935410000000     0.185710000000     0.051400000000     0.0439189  
H40      H      0.938770000000     0.143610000000     0.929110000000     0.0446526  
H41      H      0.059900000000     0.814390000000     0.551130000000     0.0439655  
H42      H      0.059290000000     0.810320000000     0.427500000000     0.0437185  
H43      H      0.996140000000     0.830300000000     0.404640000000     0.0442679  
H44      H      0.998390000000     0.835760000000     0.573530000000     0.0442727  
H45      H      0.936060000000     0.814870000000     0.554690000000     0.043869   
H46      H      0.933390000000     0.851640000000     0.428510000000     0.0435864  
H47      H      0.060370000000     0.855000000000     0.547880000000     0.0443919  
H48      H      0.059760000000     0.850940000000     0.424720000000     0.0434598  
H49      H      0.933480000000     0.811010000000     0.431190000000     0.0437744  
H50      H      0.935920000000     0.855490000000     0.551720000000     0.0443497  
H51      H      0.811120000000     0.061930000000     0.449690000000     0.0437816  
H52      H      0.806550000000     0.061000000000     0.572940000000     0.043706   
H53      H      0.826480000000     0.997580000000     0.595780000000     0.0444053  
H54      H      0.832420000000     0.000290000000     0.426950000000     0.0439732  
H55      H      0.811610000000     0.937730000000     0.445380000000     0.0437995  
H56      H      0.848100000000     0.935080000000     0.571740000000     0.043721   
H57      H      0.851730000000     0.061970000000     0.452980000000     0.0443536  
H58      H      0.847150000000     0.061090000000     0.576440000000     0.0436319  
H59      H      0.807490000000     0.934810000000     0.568690000000     0.0438394  
H60      H      0.852230000000     0.937950000000     0.448420000000     0.0443474  
H61      H      0.059840000000     0.849920000000     0.923940000000     0.0441737  
H62      H      0.060430000000     0.849490000000     0.047420000000     0.0437215  
H63      H      0.998540000000     0.828300000000     0.070560000000     0.044375   
H64      H      0.997630000000     0.827530000000     0.901450000000     0.0441643  
H65      H      0.934620000000     0.846180000000     0.924400000000     0.0436044  
H66      H      0.936290000000     0.807140000000     0.049150000000     0.0436402  
H67      H      0.061010000000     0.809280000000     0.923470000000     0.0434917  
H68      H      0.061370000000     0.808830000000     0.047080000000     0.0441747  
H69      H      0.935960000000     0.847790000000     0.048340000000     0.0446985  
H70      H      0.935190000000     0.805540000000     0.926070000000     0.0436678  
H71      H      0.857750000000     0.058380000000     0.039280000000     0.0442534  
H72      H      0.853110000000     0.057690000000     0.916290000000     0.0435006  
H73      H      0.831200000000     0.994340000000     0.896560000000     0.0443364  
H74      H      0.837710000000     0.996720000000     0.065350000000     0.044218   
H75      H      0.856280000000     0.933890000000     0.043430000000     0.0442016  
H76      H      0.810900000000     0.932070000000     0.923660000000     0.0438488  
H77      H      0.817150000000     0.058470000000     0.043070000000     0.0440418  
H78      H      0.812490000000     0.057820000000     0.919370000000     0.0437549  
H79      H      0.851490000000     0.931220000000     0.920280000000     0.0436922  
H80      H      0.815690000000     0.934740000000     0.047050000000     0.0438924  
H81      H      0.150660000000     0.725620000000     0.552300000000     0.0465036  
H82      H      0.202740000000     0.726510000000     0.455510000000     0.0411419  
H83      H      0.203300000000     0.662890000000     0.430250000000     0.0444718  
H84      H      0.120540000000     0.663780000000     0.545250000000     0.0445779  
H85      H      0.140630000000     0.601580000000     0.551840000000     0.0416056  
H86      H      0.185810000000     0.598860000000     0.431190000000     0.0414474  
H87      H      0.119030000000     0.726430000000     0.514040000000     0.0414393  
H88      H      0.170460000000     0.724770000000     0.418510000000     0.0452449  
H89      H      0.208470000000     0.602320000000     0.481530000000     0.0454944  
H90      H      0.117950000000     0.600640000000     0.501280000000     0.0459543  
H91      H      0.209120000000     0.391050000000     0.513020000000     0.0453834  
H92      H      0.140750000000     0.391040000000     0.444120000000     0.0416524  
H93      H      0.120220000000     0.329100000000     0.453410000000     0.0445757  
H94      H      0.204230000000     0.331210000000     0.566320000000     0.0444641  
H95      H      0.203080000000     0.267190000000     0.543050000000     0.0411614  
H96      H      0.118640000000     0.266990000000     0.486930000000     0.0414955  
H97      H      0.186990000000     0.395310000000     0.563740000000     0.0415474  
H98      H      0.118430000000     0.392830000000     0.494990000000     0.0460662  
H99      H      0.149730000000     0.267070000000     0.447670000000     0.0466007  
H100     H      0.171240000000     0.269630000000     0.580830000000     0.045135   
H101     H      0.207740000000     0.727650000000     0.014300000000     0.0404326  
H102     H      0.161020000000     0.724720000000     0.913540000000     0.0452113  
H103     H      0.127380000000     0.662910000000     0.923930000000     0.0445167  
H104     H      0.205140000000     0.665400000000     0.046470000000     0.0444781  
H105     H      0.209690000000     0.601770000000     0.004160000000     0.0461127  
H106     H      0.120040000000     0.603080000000     0.977030000000     0.0455599  
H107     H      0.174330000000     0.727100000000     0.049040000000     0.0466171  
H108     H      0.127020000000     0.726870000000     0.946880000000     0.0408114  
H109     H      0.144440000000     0.598900000000     0.928680000000     0.0412329  
H110     H      0.185190000000     0.603280000000     0.052760000000     0.0413786  
H111     H      0.186420000000     0.393070000000     0.941180000000     0.0414358  
H112     H      0.120720000000     0.392250000000     0.016020000000     0.0457271  
H113     H      0.127500000000     0.331570000000     0.066870000000     0.0445742  
H114     H      0.206120000000     0.330790000000     0.945500000000     0.0443683  
H115     H      0.175130000000     0.269130000000     0.940300000000     0.0464384  
H116     H      0.160790000000     0.269600000000     0.075610000000     0.045381   
H117     H      0.210540000000     0.393730000000     0.990240000000     0.0459688  
H118     H      0.144890000000     0.395560000000     0.064790000000     0.0412985  
H119     H      0.127100000000     0.267980000000     0.041510000000     0.0409869  
H120     H      0.208320000000     0.268050000000     0.975480000000     0.0404702  
H121     H      0.121180000000     0.514690000000     0.654310000000     0.0434327  
H122     H      0.202870000000     0.523510000000     0.654180000000     0.0438713  
H123     H      0.220540000000     0.503280000000     0.747260000000     0.0442659  
H124     H      0.108310000000     0.491070000000     0.747360000000     0.0442245  
H125     H      0.121280000000     0.511150000000     0.841740000000     0.0436915  
H126     H      0.207700000000     0.479730000000     0.840340000000     0.0433859  
H127     H      0.125230000000     0.474240000000     0.652980000000     0.0442723  
H128     H      0.207540000000     0.483130000000     0.652870000000     0.0437425  
H129     H      0.203580000000     0.520180000000     0.841630000000     0.0442645  
H130     H      0.126030000000     0.470770000000     0.840420000000     0.0438893  
H131     H      0.207330000000     0.510860000000     0.341980000000     0.0438287  
H132     H      0.124900000000     0.519080000000     0.341980000000     0.044324   
H133     H      0.108170000000     0.502870000000     0.247300000000     0.0442331  
H134     H      0.220500000000     0.491610000000     0.247290000000     0.0443135  
H135     H      0.207460000000     0.515820000000     0.154610000000     0.0434024  
H136     H      0.121330000000     0.483660000000     0.152590000000     0.0437749  
H137     H      0.202930000000     0.470450000000     0.340010000000     0.0438974  
H138     H      0.121230000000     0.478610000000     0.339990000000     0.0434056  
H139     H      0.125790000000     0.524060000000     0.154570000000     0.0438769  
H140     H      0.203760000000     0.475350000000     0.152640000000     0.0443643  
H141     H      0.265250000000     0.173820000000     0.433030000000     0.0458559  
H142     H      0.267360000000     0.122340000000     0.529490000000     0.0415635  
H143     H      0.331640000000     0.121500000000     0.551190000000     0.044654   
H144     H      0.328310000000     0.204300000000     0.436370000000     0.0446601  
H145     H      0.391300000000     0.184500000000     0.428200000000     0.0413373  
H146     H      0.394810000000     0.138860000000     0.548440000000     0.0415918  
H147     H      0.266480000000     0.205900000000     0.470440000000     0.0410786  
H148     H      0.271190000000     0.154360000000     0.566620000000     0.0458333  
H149     H      0.391650000000     0.116710000000     0.497530000000     0.0455374  
H150     H      0.391840000000     0.207300000000     0.478640000000     0.0460508  
H151     H      0.727250000000     0.160980000000     0.432570000000     0.0456466  
H152     H      0.725230000000     0.206860000000     0.534830000000     0.0406137  
H153     H      0.661250000000     0.204570000000     0.558660000000     0.0444327  
H154     H      0.665260000000     0.128120000000     0.434380000000     0.0444816  
H155     H      0.601690000000     0.145940000000     0.430610000000     0.041212   
H156     H      0.598490000000     0.185380000000     0.555720000000     0.0413403  
H157     H      0.727600000000     0.126840000000     0.465690000000     0.0411421  
H158     H      0.722890000000     0.172930000000     0.568250000000     0.0461009  
H159     H      0.600400000000     0.210280000000     0.507620000000     0.0457599  
H160     H      0.602450000000     0.120920000000     0.478630000000     0.0458739  
H161     H      0.394260000000     0.120150000000     0.010820000000     0.0458671  
H162     H      0.394400000000     0.187860000000     0.939700000000     0.0411865  
H163     H      0.332150000000     0.207010000000     0.946150000000     0.0443285  
H164     H      0.334170000000     0.125560000000     0.063190000000     0.0446394  
H165     H      0.270510000000     0.125380000000     0.038980000000     0.0409383  
H166     H      0.269450000000     0.207980000000     0.976940000000     0.0404134  
H167     H      0.398180000000     0.143150000000     0.060730000000     0.0410842  
H168     H      0.395640000000     0.210550000000     0.990250000000     0.0457673  
H169     H      0.270750000000     0.175620000000     0.940100000000     0.0464629  
H170     H      0.271950000000     0.158350000000     0.074620000000     0.0454148  
H171     H      0.604150000000     0.137060000000     0.039880000000     0.0414346  
H172     H      0.605140000000     0.206130000000     0.971810000000     0.0457377  
H173     H      0.665950000000     0.201890000000     0.921300000000     0.0445166  
H174     H      0.666480000000     0.117650000000     0.033850000000     0.0444647  
H175     H      0.728070000000     0.148310000000     0.042930000000     0.0463295  
H176     H      0.728100000000     0.169500000000     0.909630000000     0.0453794  
H177     H      0.603550000000     0.115350000000     0.988360000000     0.0456753  
H178     H      0.601960000000     0.184110000000     0.920810000000     0.0412933  
H179     H      0.729350000000     0.201370000000     0.947480000000     0.0410537  
H180     H      0.729450000000     0.117040000000     0.004030000000     0.0413294  
H181     H      0.511180000000     0.203410000000     0.647370000000     0.0434871  
H182     H      0.517540000000     0.121060000000     0.645690000000     0.0442756  
H183     H      0.497140000000     0.103480000000     0.739050000000     0.0443228  
H184     H      0.490060000000     0.216120000000     0.740420000000     0.0441402  
H185     H      0.511880000000     0.201910000000     0.832740000000     0.0446239  
H186     H      0.475140000000     0.117690000000     0.834070000000     0.0436936  
H187     H      0.470650000000     0.200090000000     0.646380000000     0.0442393  
H188     H      0.477000000000     0.118030000000     0.644330000000     0.043215   
H189     H      0.515780000000     0.119100000000     0.833390000000     0.0436217  
H190     H      0.471290000000     0.199610000000     0.833910000000     0.043458   
H191     H      0.517860000000     0.124020000000     0.334020000000     0.0435096  
H192     H      0.521980000000     0.206450000000     0.335490000000     0.0441944  
H193     H      0.504570000000     0.223160000000     0.240020000000     0.0443836  
H194     H      0.500030000000     0.110380000000     0.239280000000     0.0440994  
H195     H      0.523630000000     0.125080000000     0.147070000000     0.0437046  
H196     H      0.485610000000     0.208750000000     0.144880000000     0.0439713  
H197     H      0.477290000000     0.126180000000     0.331070000000     0.0442059  
H198     H      0.481400000000     0.208460000000     0.332800000000     0.043439   
H199     H      0.526230000000     0.206940000000     0.146060000000     0.0433408  
H200     H      0.482980000000     0.125780000000     0.145740000000     0.0443359  
H201     H      0.808030000000     0.396510000000     0.561320000000     0.0412052  
H202     H      0.874080000000     0.394120000000     0.487150000000     0.0459061  
H203     H      0.868790000000     0.331600000000     0.441560000000     0.044586   
H204     H      0.789830000000     0.333380000000     0.562400000000     0.0444315  
H205     H      0.822320000000     0.272090000000     0.572230000000     0.0459335  
H206     H      0.837020000000     0.269260000000     0.437070000000     0.0458245  
H207     H      0.784140000000     0.394520000000     0.512080000000     0.0456986  
H208     H      0.850020000000     0.394800000000     0.438020000000     0.0412635  
H209     H      0.870430000000     0.269030000000     0.471850000000     0.0411384  
H210     H      0.789030000000     0.269640000000     0.537400000000     0.0406808  
H211     H      0.790170000000     0.729190000000     0.462720000000     0.0411111  
H212     H      0.843460000000     0.727050000000     0.557850000000     0.0463777  
H213     H      0.873850000000     0.665530000000     0.547750000000     0.0445891  
H214     H      0.789620000000     0.665990000000     0.435150000000     0.0446086  
H215     H      0.785380000000     0.604690000000     0.484370000000     0.0455581  
H216     H      0.876140000000     0.603080000000     0.501470000000     0.0458932  
H217     H      0.821940000000     0.728210000000     0.424660000000     0.0453462  
H218     H      0.874630000000     0.728640000000     0.518800000000     0.041531   
H219     H      0.854170000000     0.603190000000     0.552760000000     0.0415359  
H220     H      0.807460000000     0.602060000000     0.433350000000     0.0414788  
H221     H      0.873060000000     0.266580000000     0.959650000000     0.0416036  
H222     H      0.821470000000     0.265540000000     0.055910000000     0.0457312  
H223     H      0.789570000000     0.327670000000     0.049260000000     0.044665   
H224     H      0.872310000000     0.330250000000     0.934270000000     0.0446354  
H225     H      0.875800000000     0.391390000000     0.984480000000     0.0457744  
H226     H      0.785230000000     0.390260000000     0.003780000000     0.045756   
H227     H      0.841070000000     0.268660000000     0.922130000000     0.0458987  
H228     H      0.789410000000     0.265050000000     0.018410000000     0.0411486  
H229     H      0.807890000000     0.391060000000     0.054370000000     0.0414712  
H230     H      0.853250000000     0.393160000000     0.933820000000     0.0414515  
H231     H      0.849240000000     0.598670000000     0.062350000000     0.0412998  
H232     H      0.783280000000     0.599900000000     0.988640000000     0.0458142  
H233     H      0.788230000000     0.662120000000     0.941220000000     0.0444028  
H234     H      0.867370000000     0.662420000000     0.061800000000     0.0447331  
H235     H      0.834940000000     0.724900000000     0.068500000000     0.0455197  
H236     H      0.820090000000     0.723310000000     0.933330000000     0.0463192  
H237     H      0.873240000000     0.600950000000     0.013270000000     0.0458924  
H238     H      0.807060000000     0.599500000000     0.939190000000     0.0413112  
H239     H      0.787050000000     0.725480000000     0.968710000000     0.0404872  
H240     H      0.868520000000     0.725440000000     0.034070000000     0.0411085  
H241     H      0.870680000000     0.479430000000     0.653060000000     0.044503   
H242     H      0.788000000000     0.481330000000     0.652710000000     0.0433332  
H243     H      0.773360000000     0.499390000000     0.746910000000     0.0441976  
H244     H      0.886250000000     0.499590000000     0.747090000000     0.0442087  
H245     H      0.871540000000     0.478870000000     0.840260000000     0.0432316  
H246     H      0.787930000000     0.517320000000     0.841570000000     0.043164   
H247     H      0.871470000000     0.520090000000     0.653460000000     0.043061   
H248     H      0.789250000000     0.521960000000     0.653770000000     0.0442635  
H249     H      0.789080000000     0.476690000000     0.839680000000     0.0443612  
H250     H      0.870360000000     0.519500000000     0.841490000000     0.0443473  
H251     H      0.869990000000     0.472840000000     0.153790000000     0.0442484  
H252     H      0.787780000000     0.474430000000     0.153520000000     0.0432018  
H253     H      0.772900000000     0.495160000000     0.247070000000     0.0443055  
H254     H      0.885800000000     0.495260000000     0.246930000000     0.0442735  
H255     H      0.871110000000     0.477210000000     0.341540000000     0.0432849  
H256     H      0.787710000000     0.516090000000     0.340140000000     0.0433367  
H257     H      0.871100000000     0.513480000000     0.152800000000     0.0434986  
H258     H      0.788400000000     0.515090000000     0.153080000000     0.0444895  
H259     H      0.788670000000     0.475450000000     0.341480000000     0.0443368  
H260     H      0.870180000000     0.517840000000     0.339650000000     0.0443823  
H261     H      0.267120000000     0.818040000000     0.564010000000     0.045837   
H262     H      0.267860000000     0.870500000000     0.468660000000     0.0415509  
H263     H      0.331570000000     0.870920000000     0.444180000000     0.0446007  
H264     H      0.329650000000     0.786940000000     0.557150000000     0.0446308  
H265     H      0.392770000000     0.806030000000     0.563290000000     0.0412366  
H266     H      0.394740000000     0.852980000000     0.444090000000     0.0412786  
H267     H      0.267100000000     0.786350000000     0.525810000000     0.0410129  
H268     H      0.270460000000     0.838810000000     0.430650000000     0.0458548  
H269     H      0.392300000000     0.874800000000     0.495400000000     0.0458014  
H270     H      0.392580000000     0.784010000000     0.512060000000     0.0457754  
H271     H      0.727770000000     0.790220000000     0.535790000000     0.0410325  
H272     H      0.725140000000     0.843930000000     0.441390000000     0.0463535  
H273     H      0.663490000000     0.874170000000     0.452410000000     0.0445668  
H274     H      0.664610000000     0.789250000000     0.563820000000     0.0444835  
H275     H      0.603040000000     0.785210000000     0.515020000000     0.0455161  
H276     H      0.601320000000     0.876080000000     0.499480000000     0.0459918  
H277     H      0.726680000000     0.821730000000     0.574320000000     0.0453725  
H278     H      0.726640000000     0.874960000000     0.480700000000     0.0415537  
H279     H      0.601100000000     0.854450000000     0.447860000000     0.0414386  
H280     H      0.600710000000     0.806860000000     0.566500000000     0.0412962  
H281     H      0.393530000000     0.786220000000     0.010620000000     0.0461499  
H282     H      0.397600000000     0.852800000000     0.937740000000     0.0413396  
H283     H      0.333830000000     0.870220000000     0.931970000000     0.044646   
H284     H      0.329450000000     0.790420000000     0.051410000000     0.044451   
H285     H      0.267640000000     0.788660000000     0.017430000000     0.0404943  
H286     H      0.269540000000     0.870460000000     0.953090000000     0.0409227  
H287     H      0.391670000000     0.809930000000     0.060070000000     0.0412434  
H288     H      0.393070000000     0.876310000000     0.987000000000     0.045575   
H289     H      0.272130000000     0.837070000000     0.918470000000     0.045375   
H290     H      0.267740000000     0.821520000000     0.053320000000     0.0464979  
H291     H      0.724300000000     0.823100000000     0.932000000000     0.0458866  
H292     H      0.728260000000     0.870370000000     0.033080000000     0.0410955  
H293     H      0.665930000000     0.868150000000     0.064970000000     0.0445178  
H294     H      0.663300000000     0.790330000000     0.942510000000     0.0443765  
H295     H      0.600270000000     0.808220000000     0.945150000000     0.0415258  
H296     H      0.602690000000     0.848860000000     0.069420000000     0.0411712  
H297     H      0.727210000000     0.789510000000     0.966090000000     0.0406991  
H298     H      0.728530000000     0.836730000000     0.067340000000     0.0457848  
H299     H      0.602920000000     0.873580000000     0.021030000000     0.0460047  
H300     H      0.602690000000     0.783940000000     0.993920000000     0.0456085  
H301     H      0.474690000000     0.793200000000     0.662690000000     0.0437338  
H302     H      0.478640000000     0.875370000000     0.661930000000     0.0437389  
H303     H      0.501820000000     0.889680000000     0.755730000000     0.0443712  
H304     H      0.494950000000     0.777010000000     0.755160000000     0.0442474  
H305     H      0.476430000000     0.793010000000     0.848910000000     0.0444634  
H306     H      0.523060000000     0.872220000000     0.849200000000     0.0440377  
H307     H      0.515300000000     0.791090000000     0.661750000000     0.0443417  
H308     H      0.519270000000     0.873660000000     0.660620000000     0.0435537  
H309     H      0.482530000000     0.875490000000     0.850460000000     0.0434045  
H310     H      0.517010000000     0.790220000000     0.848020000000     0.0432395  
H311     H      0.519280000000     0.786090000000     0.348910000000     0.043466   
H312     H      0.516130000000     0.868430000000     0.348430000000     0.0441116  
H313     H      0.493860000000     0.883090000000     0.256080000000     0.0441239  
H314     H      0.499280000000     0.770350000000     0.254630000000     0.0443437  
H315     H      0.518550000000     0.787440000000     0.160600000000     0.044304   
H316     H      0.473190000000     0.867370000000     0.162710000000     0.0441001  
H317     H      0.478650000000     0.784510000000     0.349660000000     0.0437354  
H318     H      0.475500000000     0.866980000000     0.349440000000     0.0439217  
H319     H      0.513780000000     0.869980000000     0.162370000000     0.0436136  
H320     H      0.477940000000     0.785280000000     0.160700000000     0.0433205  
N1       N      0.165380000000     0.073280000000     0.505220000000    -0.166427   
N2       N      0.166270000000     0.920160000000     0.497540000000    -0.166377   
N3       N      0.166660000000     0.074210000000     0.997130000000    -0.166601   
N4       N      0.164710000000     0.921090000000     0.989680000000    -0.166573   
N5       N      0.920120000000     0.165020000000     0.517330000000    -0.166486   
N6       N      0.073350000000     0.161960000000     0.517600000000    -0.166295   
N7       N      0.923030000000     0.164430000000     0.989600000000    -0.166392   
N8       N      0.076150000000     0.164580000000     0.997560000000    -0.166606   
N9       N      0.920720000000     0.833150000000     0.492230000000    -0.1666     
N10      N      0.073830000000     0.832370000000     0.487700000000    -0.16654    
N11      N      0.829970000000     0.922400000000     0.507790000000    -0.166493   
N12      N      0.829170000000     0.075510000000     0.513230000000    -0.166659   
N13      N      0.921500000000     0.826760000000     0.987290000000    -0.166623   
N14      N      0.074660000000     0.829710000000     0.985400000000    -0.166604   
N15      N      0.833250000000     0.918990000000     0.984350000000    -0.166597   
N16      N      0.834950000000     0.072100000000     0.979370000000    -0.166465   
N17      N      0.163580000000     0.586910000000     0.492530000000    -0.166337   
N18      N      0.160960000000     0.739810000000     0.485240000000    -0.166388   
N19      N      0.160870000000     0.253730000000     0.514840000000    -0.166386   
N20      N      0.164190000000     0.406500000000     0.502520000000    -0.166336   
N21      N      0.164450000000     0.587850000000     0.992100000000    -0.16653    
N22      N      0.167260000000     0.740540000000     0.980710000000    -0.16659    
N23      N      0.167610000000     0.254740000000     0.008060000000    -0.166544   
N24      N      0.165270000000     0.407580000000     0.002060000000    -0.1665     
N25      N      0.164660000000     0.495420000000     0.862020000000    -0.166593   
N26      N      0.164190000000     0.498940000000     0.632600000000    -0.166559   
N27      N      0.164600000000     0.499860000000     0.132610000000    -0.166559   
N28      N      0.164080000000     0.494610000000     0.361980000000    -0.166507   
N29      N      0.406370000000     0.161880000000     0.487570000000    -0.166367   
N30      N      0.253650000000     0.164440000000     0.501400000000    -0.166456   
N31      N      0.586810000000     0.165350000000     0.492630000000    -0.166426   
N32      N      0.739670000000     0.166800000000     0.501460000000    -0.166455   
N33      N      0.256720000000     0.166420000000     0.007580000000    -0.166465   
N34      N      0.409530000000     0.164990000000     0.998840000000    -0.166565   
N35      N      0.742710000000     0.159360000000     0.976380000000    -0.166549   
N36      N      0.589760000000     0.161060000000     0.981320000000    -0.166519   
N37      N      0.494110000000     0.159650000000     0.854540000000    -0.166377   
N38      N      0.494470000000     0.160920000000     0.624960000000    -0.166352   
N39      N      0.504430000000     0.166540000000     0.124910000000    -0.166423   
N40      N      0.499030000000     0.166100000000     0.354320000000    -0.166478   
N41      N      0.829910000000     0.256080000000     0.505380000000    -0.166664   
N42      N      0.829120000000     0.408920000000     0.499330000000    -0.166582   
N43      N      0.830460000000     0.589310000000     0.493680000000    -0.166594   
N44      N      0.832280000000     0.742220000000     0.491620000000    -0.166544   
N45      N      0.830370000000     0.405420000000     0.994450000000    -0.16653    
N46      N      0.831240000000     0.252520000000     0.988250000000    -0.166633   
N47      N      0.828080000000     0.738710000000     0.000460000000    -0.166431   
N48      N      0.828490000000     0.585820000000     0.000290000000    -0.166338   
N49      N      0.829710000000     0.497720000000     0.861720000000    -0.166547   
N50      N      0.829850000000     0.500680000000     0.632270000000    -0.16653    
N51      N      0.829430000000     0.497040000000     0.361640000000    -0.166761   
N52      N      0.829320000000     0.494000000000     0.132340000000    -0.166731   
N53      N      0.407040000000     0.829510000000     0.504190000000    -0.166726   
N54      N      0.254210000000     0.828310000000     0.496470000000    -0.166666   
N55      N      0.587600000000     0.830340000000     0.506770000000    -0.166713   
N56      N      0.740510000000     0.832570000000     0.507440000000    -0.166619   
N57      N      0.255320000000     0.829690000000     0.984860000000    -0.166658   
N58      N      0.407870000000     0.831560000000     0.000570000000    -0.16644    
N59      N      0.588200000000     0.828720000000     0.007760000000    -0.166446   
N60      N      0.741000000000     0.830140000000     0.998590000000    -0.166674   
N61      N      0.499790000000     0.832550000000     0.870110000000    -0.166748   
N62      N      0.496870000000     0.833220000000     0.640770000000    -0.166755   
N63      N      0.495990000000     0.827770000000     0.140610000000    -0.166532   
N64      N      0.497550000000     0.826550000000     0.370110000000    -0.166534   
O1       O      0.543870000000     0.854330000000     0.012950000000    -0.396358   
O2       O      0.452960000000     0.855980000000     0.999320000000    -0.396278   
O3       O      0.494790000000     0.853910000000     0.074410000000    -0.39683    
O4       O      0.501970000000     0.856560000000     0.938110000000    -0.396479   
O5       O      0.496310000000     0.806610000000     0.936200000000    -0.398325   
O6       O      0.498940000000     0.803810000000     0.072680000000    -0.397141   
O7       O      0.452050000000     0.806010000000     0.007550000000    -0.397521   
O8       O      0.543170000000     0.804690000000     0.001070000000    -0.397548   
O9       O      0.451630000000     0.854670000000     0.501840000000    -0.398222   
O10      O      0.542800000000     0.855010000000     0.502390000000    -0.39864    
O11      O      0.497290000000     0.852990000000     0.435580000000    -0.400629   
O12      O      0.497170000000     0.856890000000     0.572100000000    -0.395923   
O13      O      0.496830000000     0.806650000000     0.575400000000    -0.400229   
O14      O      0.497920000000     0.802750000000     0.438780000000    -0.394762   
O15      O      0.543060000000     0.804950000000     0.509710000000    -0.397088   
O16      O      0.451750000000     0.804540000000     0.508170000000    -0.397165   
O17      O      0.804960000000     0.449790000000     0.000160000000    -0.396875   
O18      O      0.804120000000     0.540950000000     0.993840000000    -0.397266   
O19      O      0.804580000000     0.494240000000     0.928630000000    -0.397131   
O20      O      0.804310000000     0.496580000000     0.065270000000    -0.397311   
O21      O      0.854460000000     0.492740000000     0.065320000000    -0.397395   
O22      O      0.854640000000     0.499040000000     0.928970000000    -0.397096   
O23      O      0.854000000000     0.541370000000     0.003430000000    -0.396359   
O24      O      0.854880000000     0.450410000000     0.991100000000    -0.396629   
O25      O      0.804450000000     0.453800000000     0.503090000000    -0.396759   
O26      O      0.804990000000     0.544800000000     0.490890000000    -0.396303   
O27      O      0.804460000000     0.496150000000     0.428840000000    -0.397216   
O28      O      0.804740000000     0.502360000000     0.565200000000    -0.397136   
O29      O      0.854820000000     0.497750000000     0.565150000000    -0.39717    
O30      O      0.854600000000     0.500090000000     0.428510000000    -0.397712   
O31      O      0.854920000000     0.544480000000     0.499820000000    -0.397694   
O32      O      0.854330000000     0.453370000000     0.493540000000    -0.397491   
O33      O      0.545570000000     0.187170000000     0.981640000000    -0.396682   
O34      O      0.454470000000     0.189000000000     0.990780000000    -0.397591   
O35      O      0.503040000000     0.190190000000     0.056160000000    -0.39465    
O36      O      0.496900000000     0.186190000000     0.919830000000    -0.399691   
O37      O      0.496510000000     0.135950000000     0.923200000000    -0.394518   
O38      O      0.501910000000     0.139970000000     0.059620000000    -0.399817   
O39      O      0.453690000000     0.138910000000     0.997550000000    -0.397252   
O40      O      0.544750000000     0.137120000000     0.989030000000    -0.397763   
O41      O      0.450620000000     0.187760000000     0.484190000000    -0.396217   
O42      O      0.541560000000     0.189260000000     0.497140000000    -0.396491   
O43      O      0.499580000000     0.190120000000     0.422430000000    -0.395839   
O44      O      0.492680000000     0.187070000000     0.558790000000    -0.39671    
O45      O      0.498480000000     0.137140000000     0.556950000000    -0.396348   
O46      O      0.495730000000     0.140010000000     0.420350000000    -0.397388   
O47      O      0.542720000000     0.139640000000     0.485150000000    -0.396515   
O48      O      0.451520000000     0.137770000000     0.492040000000    -0.396602   
O49      O      0.139530000000     0.543020000000     0.989610000000    -0.395745   
O50      O      0.139950000000     0.452170000000     0.004930000000    -0.395669   
O51      O      0.139600000000     0.501720000000     0.065410000000    -0.396178   
O52      O      0.139660000000     0.493460000000     0.929200000000    -0.396504   
O53      O      0.189630000000     0.499080000000     0.929010000000    -0.397406   
O54      O      0.189620000000     0.496570000000     0.065620000000    -0.397219   
O55      O      0.189730000000     0.452280000000     0.994350000000    -0.397606   
O56      O      0.189300000000     0.543390000000     0.000250000000    -0.397446   
O57      O      0.139380000000     0.451040000000     0.494670000000    -0.397427   
O58      O      0.139060000000     0.542180000000     0.500060000000    -0.397376   
O59      O      0.139090000000     0.497760000000     0.429020000000    -0.397369   
O60      O      0.139160000000     0.495470000000     0.565640000000    -0.397453   
O61      O      0.189170000000     0.500770000000     0.565400000000    -0.396356   
O62      O      0.189130000000     0.492820000000     0.429140000000    -0.396413   
O63      O      0.188880000000     0.542260000000     0.489940000000    -0.395423   
O64      O      0.189220000000     0.451320000000     0.504610000000    -0.395271   
O65      O      0.832200000000     0.784730000000     0.034060000000    -0.396401   
O66      O      0.833660000000     0.875770000000     0.025500000000    -0.399291   
O67      O      0.786880000000     0.832470000000     0.032880000000    -0.397527   
O68      O      0.877830000000     0.829140000000     0.027020000000    -0.40028    
O69      O      0.875680000000     0.826130000000     0.951880000000    -0.395198   
O70      O      0.784350000000     0.827250000000     0.958020000000    -0.397465   
O71      O      0.830760000000     0.872810000000     0.950410000000    -0.395911   
O72      O      0.827940000000     0.781760000000     0.959090000000    -0.398409   
O73      O      0.836050000000     0.785380000000     0.532320000000    -0.398661   
O74      O      0.829200000000     0.876150000000     0.541710000000    -0.395591   
O75      O      0.786550000000     0.826690000000     0.540540000000    -0.395421   
O76      O      0.877430000000     0.833720000000     0.533210000000    -0.39834    
O77      O      0.874580000000     0.831720000000     0.458050000000    -0.395769   
O78      O      0.783690000000     0.837070000000     0.466980000000    -0.398826   
O79      O      0.831340000000     0.879220000000     0.466580000000    -0.398267   
O80      O      0.825820000000     0.788260000000     0.458720000000    -0.395381   
O81      O      0.836490000000     0.208950000000     0.948720000000    -0.39676    
O82      O      0.832820000000     0.117620000000     0.943070000000    -0.393761   
O83      O      0.788470000000     0.165740000000     0.942630000000    -0.394925   
O84      O      0.879620000000     0.162080000000     0.948930000000    -0.397394   
O85      O      0.876960000000     0.164840000000     0.024050000000    -0.395931   
O86      O      0.786170000000     0.156670000000     0.016620000000    -0.398207   
O87      O      0.835150000000     0.116130000000     0.018290000000    -0.399906   
O88      O      0.826850000000     0.206770000000     0.022560000000    -0.396705   
O89      O      0.832740000000     0.210530000000     0.470300000000    -0.398329   
O90      O      0.831090000000     0.119590000000     0.474610000000    -0.401442   
O91      O      0.785880000000     0.164360000000     0.468220000000    -0.39799    
O92      O      0.876770000000     0.164500000000     0.476720000000    -0.400864   
O93      O      0.873970000000     0.166640000000     0.551870000000    -0.39397    
O94      O      0.782630000000     0.167980000000     0.543230000000    -0.396555   
O95      O      0.827800000000     0.120950000000     0.549760000000    -0.394306   
O96      O      0.827500000000     0.212380000000     0.545210000000    -0.396812   
O97      O      0.164480000000     0.209100000000     0.043140000000    -0.395418   
O98      O      0.165450000000     0.117830000000     0.037460000000    -0.397719   
O99      O      0.211180000000     0.162550000000     0.042840000000    -0.394989   
O100     O      0.119840000000     0.163370000000     0.037740000000    -0.397623   
O101     O      0.121950000000     0.165610000000     0.962540000000    -0.397338   
O102     O      0.213050000000     0.166970000000     0.967820000000    -0.39954    
O103     O      0.167850000000     0.120080000000     0.962280000000    -0.397071   
O104     O      0.168420000000     0.211170000000     0.968070000000    -0.399689   
O105     O      0.167750000000     0.208300000000     0.549560000000    -0.393941   
O106     O      0.163740000000     0.117000000000     0.545350000000    -0.396411   
O107     O      0.210750000000     0.159990000000     0.542790000000    -0.39626    
O108     O      0.119520000000     0.164040000000     0.552090000000    -0.393198   
O109     O      0.116710000000     0.161140000000     0.477000000000    -0.399663   
O110     O      0.207330000000     0.168930000000     0.468860000000    -0.396786   
O111     O      0.165190000000     0.119070000000     0.470110000000    -0.396733   
O112     O      0.157520000000     0.209840000000     0.475870000000    -0.399017   
O113     O      0.164330000000     0.785960000000     0.944900000000    -0.394843   
O114     O      0.164460000000     0.877320000000     0.949610000000    -0.39736    
O115     O      0.210620000000     0.832920000000     0.947110000000    -0.39495    
O116     O      0.119210000000     0.831360000000     0.947380000000    -0.397438   
O117     O      0.119650000000     0.829380000000     0.022660000000    -0.397981   
O118     O      0.210760000000     0.828960000000     0.022240000000    -0.399931   
O119     O      0.165080000000     0.875370000000     0.024890000000    -0.397756   
O120     O      0.166660000000     0.784320000000     0.020140000000    -0.399942   
O121     O      0.167320000000     0.785490000000     0.451170000000    -0.394804   
O122     O      0.163850000000     0.876680000000     0.457030000000    -0.397401   
O123     O      0.210630000000     0.833460000000     0.456980000000    -0.397101   
O124     O      0.119320000000     0.829990000000     0.451410000000    -0.394169   
O125     O      0.117860000000     0.832410000000     0.526630000000    -0.400006   
O126     O      0.208490000000     0.823960000000     0.530860000000    -0.397072   
O127     O      0.166660000000     0.874160000000     0.532150000000    -0.396096   
O128     O      0.158350000000     0.783390000000     0.525190000000    -0.398516   


