data_structure

_audit_creation_method RASPA-1.0
_audit_creation_date 2023-6-5
_audit_author_name 'Poobodin Mano'

_cell_length_a    28.8952
_cell_length_b    28.8767
_cell_length_c    34.2136
_cell_angle_alpha 89.9848
_cell_angle_beta  90.0153
_cell_angle_gamma 119.981
_cell_volume      24727.8

_symmetry_cell_setting          triclinic
_symmetry_space_group_name_Hall 'P 1'
_symmetry_space_group_name_H-M  'P 1'
_symmetry_Int_Tables_number     1

_symmetry_equiv_pos_as_xyz 'x,y,z'

loop_
_atom_site_label
_atom_site_type_symbol
_atom_site_fract_x
_atom_site_fract_y
_atom_site_fract_z
_atom_site_charge
C1       C      0.782870000000     0.680640000000     0.313940000000     0.417047   
C2       C      0.983440000000     0.776740000000     0.364410000000     0.417626   
C3       C      0.915030000000     0.742010000000     0.265230000000     0.415314   
C4       C      0.851800000000     0.709820000000     0.413450000000     0.415822   
C5       C      0.314120000000     0.909370000000     0.452340000000     0.415143   
C6       C      0.112280000000     0.804280000000     0.404030000000     0.41718    
C7       C      0.180600000000     0.843890000000     0.502300000000     0.418691   
C8       C      0.242650000000     0.873810000000     0.354360000000     0.418912   
C9       C      0.646710000000     0.068180000000     0.037030000000     0.415501   
C10      C      0.449370000000     0.004790000000     0.486680000000     0.415966   
C11      C      0.517140000000     0.024250000000     0.085280000000     0.419976   
C12      C      0.581050000000     0.049790000000     0.437890000000     0.419099   
C13      C      0.312880000000     0.411650000000     0.210900000000     0.415548   
C14      C      0.111570000000     0.295040000000     0.163210000000     0.416787   
C15      C      0.180430000000     0.334230000000     0.261130000000     0.418742   
C16      C      0.241730000000     0.370370000000     0.113040000000     0.418348   
C17      C      0.980010000000     0.263120000000     0.126620000000     0.41803    
C18      C      0.778990000000     0.161500000000     0.076860000000     0.41621    
C19      C      0.848190000000     0.195110000000     0.175970000000     0.416057   
C20      C      0.911950000000     0.225640000000     0.027990000000     0.415842   
C21      C      0.657130000000     0.577710000000     0.271720000000     0.417176   
C22      C      0.451920000000     0.454760000000     0.235670000000     0.416197   
C23      C      0.536500000000     0.484270000000     0.327470000000     0.416114   
C24      C      0.573810000000     0.554060000000     0.180380000000     0.414384   
C25      C      0.146330000000     0.393550000000     0.461990000000     0.415387   
C26      C      0.258060000000     0.304020000000     0.412280000000     0.414557   
C27      C      0.220690000000     0.335520000000     0.511090000000     0.418116   
C28      C      0.186640000000     0.364650000000     0.363350000000     0.418915   
C29      C      0.355840000000     0.272090000000     0.370570000000     0.415014   
C30      C      0.423740000000     0.142470000000     0.319050000000     0.418108   
C31      C      0.406470000000     0.189360000000     0.417660000000     0.417241   
C32      C      0.376270000000     0.225110000000     0.270140000000     0.416002   
C33      C      0.112010000000     0.492110000000     0.497830000000     0.414114   
C34      C      0.002180000000     0.591020000000     0.028460000000     0.412099   
C35      C      0.072430000000     0.576090000000     0.439820000000     0.414231   
C36      C      0.041090000000     0.505120000000     0.086810000000     0.412992   
C37      C      0.795900000000     0.836850000000     0.170950000000     0.420156   
C38      C      0.697990000000     0.942940000000     0.212490000000     0.418521   
C39      C      0.755930000000     0.921570000000     0.118520000000     0.415698   
C40      C      0.735440000000     0.852590000000     0.265330000000     0.414847   
C41      C      0.830880000000     0.749990000000     0.117410000000     0.418409   
C42      C      0.961950000000     0.685600000000     0.063490000000     0.414886   
C43      C      0.913300000000     0.705630000000     0.163700000000     0.415497   
C44      C      0.877150000000     0.735970000000     0.016310000000     0.414519   
C45      C      0.514490000000     0.097590000000     0.284490000000     0.418059   
C46      C      0.596990000000     0.978620000000     0.238250000000     0.416704   
C47      C      0.565800000000     0.018490000000     0.335460000000     0.419583   
C48      C      0.543260000000     0.056340000000     0.187280000000     0.419523   
C49      C      0.360960000000     0.102340000000     0.119710000000     0.416918   
C50      C      0.427450000000     0.298770000000     0.066570000000     0.417151   
C51      C      0.409220000000     0.234950000000     0.167500000000     0.416174   
C52      C      0.377830000000     0.167430000000     0.020360000000     0.416525   
C53      C      0.516640000000     0.428380000000     0.021980000000     0.416119   
C54      C      0.605510000000     0.634640000000     0.484910000000     0.411524   
C55      C      0.593680000000     0.553250000000     0.076630000000     0.415096   
C56      C      0.526370000000     0.503770000000     0.429590000000     0.414535   
C57      C      0.264030000000     0.968430000000     0.154850000000     0.417571   
C58      C      0.155480000000     0.767700000000     0.203780000000     0.420885   
C59      C      0.196170000000     0.834150000000     0.105300000000     0.41847    
C60      C      0.226280000000     0.897030000000     0.253040000000     0.419015   
C61      C      0.117470000000     0.637100000000     0.244770000000     0.41992    
C62      C      0.991690000000     0.433580000000     0.282580000000     0.418679   
C63      C      0.064140000000     0.510840000000     0.190230000000     0.414036   
C64      C      0.046550000000     0.562190000000     0.337000000000     0.414798   
C65      C      0.944630000000     0.301350000000     0.324600000000     0.418227   
C66      C      0.814210000000     0.106480000000     0.379880000000     0.416438   
C67      C      0.859350000000     0.171150000000     0.278210000000     0.416676   
C68      C      0.898040000000     0.239650000000     0.425000000000     0.416642   
C69      C      0.702880000000     0.774200000000     0.460430000000     0.41216    
C70      C      0.785660000000     0.980460000000     0.424880000000     0.414896   
C71      C      0.729240000000     0.898880000000     0.515940000000     0.413993   
C72      C      0.759590000000     0.859890000000     0.368770000000     0.414812   
C73      C      0.782870000000     0.680640000000     0.813940000000     0.416882   
C74      C      0.983440000000     0.776740000000     0.864410000000     0.417687   
C75      C      0.915030000000     0.742010000000     0.765230000000     0.415306   
C76      C      0.851790000000     0.709810000000     0.913450000000     0.415984   
C77      C      0.314120000000     0.909370000000     0.952340000000     0.415241   
C78      C      0.112280000000     0.804280000000     0.904030000000     0.417239   
C79      C      0.180600000000     0.843890000000     0.002300000000     0.416217   
C80      C      0.242650000000     0.873810000000     0.854360000000     0.418812   
C81      C      0.646710000000     0.068180000000     0.537030000000     0.415677   
C82      C      0.449370000000     0.004790000000     0.986680000000     0.415869   
C83      C      0.517140000000     0.024250000000     0.585280000000     0.420129   
C84      C      0.581050000000     0.049790000000     0.937890000000     0.41892    
C85      C      0.312870000000     0.411650000000     0.710900000000     0.415731   
C86      C      0.111570000000     0.295040000000     0.663210000000     0.416889   
C87      C      0.180430000000     0.334230000000     0.761130000000     0.418736   
C88      C      0.241730000000     0.370370000000     0.613040000000     0.41838    
C89      C      0.980010000000     0.263120000000     0.626620000000     0.418255   
C90      C      0.778990000000     0.161500000000     0.576860000000     0.416427   
C91      C      0.848190000000     0.195100000000     0.675970000000     0.416124   
C92      C      0.911950000000     0.225640000000     0.528000000000     0.416941   
C93      C      0.657130000000     0.577710000000     0.771720000000     0.417168   
C94      C      0.451920000000     0.454760000000     0.735670000000     0.416187   
C95      C      0.536500000000     0.484270000000     0.827470000000     0.41638    
C96      C      0.573810000000     0.554050000000     0.680390000000     0.414283   
C97      C      0.146330000000     0.393550000000     0.961990000000     0.415504   
C98      C      0.258060000000     0.304020000000     0.912280000000     0.41463    
C99      C      0.220690000000     0.335520000000     0.011090000000     0.415688   
C100     C      0.186640000000     0.364650000000     0.863350000000     0.418947   
C101     C      0.355840000000     0.272090000000     0.870570000000     0.415035   
C102     C      0.423740000000     0.142470000000     0.819050000000     0.418111   
C103     C      0.406470000000     0.189360000000     0.917650000000     0.417362   
C104     C      0.376270000000     0.225120000000     0.770140000000     0.41598    
C105     C      0.112010000000     0.492110000000     0.997830000000     0.415301   
C106     C      0.002180000000     0.591020000000     0.528460000000     0.412238   
C107     C      0.072430000000     0.576090000000     0.939820000000     0.414088   
C108     C      0.041090000000     0.505120000000     0.586810000000     0.41309    
C109     C      0.795900000000     0.836850000000     0.670950000000     0.420328   
C110     C      0.697990000000     0.942940000000     0.712490000000     0.4185     
C111     C      0.755930000000     0.921570000000     0.618520000000     0.41583    
C112     C      0.735440000000     0.852590000000     0.765330000000     0.414848   
C113     C      0.830880000000     0.749990000000     0.617420000000     0.418422   
C114     C      0.961950000000     0.685600000000     0.563490000000     0.415098   
C115     C      0.913300000000     0.705630000000     0.663700000000     0.415507   
C116     C      0.877150000000     0.735970000000     0.516310000000     0.415486   
C117     C      0.514490000000     0.097590000000     0.784500000000     0.417996   
C118     C      0.596990000000     0.978620000000     0.738250000000     0.41677    
C119     C      0.565800000000     0.018500000000     0.835460000000     0.419595   
C120     C      0.543260000000     0.056340000000     0.687280000000     0.419608   
C121     C      0.360960000000     0.102340000000     0.619710000000     0.41697    
C122     C      0.427450000000     0.298770000000     0.566570000000     0.41723    
C123     C      0.409220000000     0.234950000000     0.667500000000     0.416198   
C124     C      0.377830000000     0.167430000000     0.520360000000     0.417429   
C125     C      0.516640000000     0.428380000000     0.521980000000     0.41615    
C126     C      0.605510000000     0.634640000000     0.984900000000     0.411477   
C127     C      0.593680000000     0.553250000000     0.576630000000     0.415071   
C128     C      0.526370000000     0.503770000000     0.929590000000     0.414515   
C129     C      0.264030000000     0.968430000000     0.654850000000     0.417612   
C130     C      0.155480000000     0.767700000000     0.703780000000     0.420897   
C131     C      0.196170000000     0.834150000000     0.605300000000     0.418699   
C132     C      0.226280000000     0.897030000000     0.753040000000     0.419024   
C133     C      0.117470000000     0.637100000000     0.744770000000     0.420079   
C134     C      0.991690000000     0.433580000000     0.782580000000     0.418726   
C135     C      0.064140000000     0.510840000000     0.690230000000     0.414241   
C136     C      0.046550000000     0.562190000000     0.836990000000     0.414775   
C137     C      0.944630000000     0.301350000000     0.824600000000     0.418074   
C138     C      0.814210000000     0.106480000000     0.879880000000     0.416287   
C139     C      0.859350000000     0.171150000000     0.778210000000     0.416693   
C140     C      0.898040000000     0.239650000000     0.925000000000     0.416716   
C141     C      0.702880000000     0.774200000000     0.960430000000     0.41223    
C142     C      0.785660000000     0.980460000000     0.924880000000     0.414988   
C143     C      0.729240000000     0.898880000000     0.015940000000     0.412788   
C144     C      0.759590000000     0.859900000000     0.868770000000     0.41494    
Cu1      Cu     0.884520000000     0.770880000000     0.339830000000     0.85704    
Cu2      Cu     0.881690000000     0.683770000000     0.338800000000     0.859717   
Cu3      Cu     0.211760000000     0.900580000000     0.428090000000     0.852877   
Cu4      Cu     0.213970000000     0.815900000000     0.429070000000     0.869488   
Cu5      Cu     0.557800000000     0.083510000000     0.012280000000     0.85765    
Cu6      Cu     0.538860000000     0.989900000000     0.010640000000     0.857236   
Cu7      Cu     0.208410000000     0.393870000000     0.187570000000     0.866218   
Cu8      Cu     0.215710000000     0.311940000000     0.186990000000     0.855569   
Cu9      Cu     0.878940000000     0.253510000000     0.101420000000     0.872492   
Cu10     Cu     0.880120000000     0.168320000000     0.102260000000     0.846839   
Cu11     Cu     0.545870000000     0.554100000000     0.262570000000     0.853586   
Cu12     Cu     0.563190000000     0.481040000000     0.244600000000     0.857234   
Cu13     Cu     0.162100000000     0.305250000000     0.437010000000     0.870324   
Cu14     Cu     0.244180000000     0.394220000000     0.437440000000     0.846531   
Cu15     Cu     0.344250000000     0.169680000000     0.345630000000     0.863668   
Cu16     Cu     0.436760000000     0.246110000000     0.342910000000     0.852012   
Cu17     Cu     0.015010000000     0.500980000000     0.003390000000     0.856371   
Cu18     Cu     0.098940000000     0.581590000000     0.023490000000     0.843589   
Cu19     Cu     0.702050000000     0.849290000000     0.183860000000     0.851457   
Cu20     Cu     0.789710000000     0.927670000000     0.200600000000     0.86468    
Cu21     Cu     0.858750000000     0.672460000000     0.087740000000     0.854648   
Cu22     Cu     0.934240000000     0.765500000000     0.091070000000     0.857757   
Cu23     Cu     0.510080000000     0.997110000000     0.260750000000     0.855865   
Cu24     Cu     0.599990000000     0.078030000000     0.261850000000     0.871422   
Cu25     Cu     0.440460000000     0.209210000000     0.092320000000     0.849558   
Cu26     Cu     0.347820000000     0.192720000000     0.095480000000     0.866082   
Cu27     Cu     0.602870000000     0.531570000000     0.994100000000     0.851146   
Cu28     Cu     0.519090000000     0.530360000000     0.511480000000     0.855434   
Cu29     Cu     0.252870000000     0.865130000000     0.179650000000     0.848108   
Cu30     Cu     0.169580000000     0.869890000000     0.177960000000     0.881326   
Cu31     Cu     0.095080000000     0.533100000000     0.273140000000     0.849108   
Cu32     Cu     0.014700000000     0.537840000000     0.254470000000     0.865593   
Cu33     Cu     0.916170000000     0.195180000000     0.353280000000     0.866399   
Cu34     Cu     0.840880000000     0.213070000000     0.350490000000     0.849999   
Cu35     Cu     0.788860000000     0.885730000000     0.451410000000     0.860806   
Cu36     Cu     0.698760000000     0.869340000000     0.433910000000     0.842197   
Cu37     Cu     0.884520000000     0.770880000000     0.839830000000     0.857027   
Cu38     Cu     0.881690000000     0.683770000000     0.838800000000     0.859767   
Cu39     Cu     0.211760000000     0.900580000000     0.928090000000     0.852845   
Cu40     Cu     0.213970000000     0.815900000000     0.929070000000     0.869501   
Cu41     Cu     0.557800000000     0.083510000000     0.512280000000     0.859247   
Cu42     Cu     0.538860000000     0.989900000000     0.510640000000     0.858821   
Cu43     Cu     0.208410000000     0.393870000000     0.687570000000     0.86622    
Cu44     Cu     0.215710000000     0.311940000000     0.686990000000     0.855594   
Cu45     Cu     0.878940000000     0.253510000000     0.601420000000     0.872694   
Cu46     Cu     0.880130000000     0.168320000000     0.602260000000     0.846956   
Cu47     Cu     0.545870000000     0.554090000000     0.762570000000     0.853538   
Cu48     Cu     0.563190000000     0.481040000000     0.744600000000     0.857202   
Cu49     Cu     0.162100000000     0.305250000000     0.937010000000     0.870275   
Cu50     Cu     0.244180000000     0.394220000000     0.937440000000     0.846443   
Cu51     Cu     0.344250000000     0.169680000000     0.845630000000     0.863733   
Cu52     Cu     0.436760000000     0.246110000000     0.842910000000     0.852076   
Cu53     Cu     0.015010000000     0.500990000000     0.503390000000     0.857984   
Cu54     Cu     0.098940000000     0.581590000000     0.523490000000     0.844258   
Cu55     Cu     0.702050000000     0.849290000000     0.683860000000     0.851572   
Cu56     Cu     0.789720000000     0.927680000000     0.700600000000     0.864653   
Cu57     Cu     0.858760000000     0.672460000000     0.587740000000     0.854879   
Cu58     Cu     0.934250000000     0.765500000000     0.591070000000     0.857883   
Cu59     Cu     0.510080000000     0.997110000000     0.760750000000     0.855934   
Cu60     Cu     0.599990000000     0.078030000000     0.761850000000     0.871351   
Cu61     Cu     0.440460000000     0.209210000000     0.592320000000     0.849761   
Cu62     Cu     0.347810000000     0.192720000000     0.595480000000     0.866358   
Cu63     Cu     0.602870000000     0.531570000000     0.494100000000     0.848416   
Cu64     Cu     0.519090000000     0.530360000000     0.011480000000     0.852704   
Cu65     Cu     0.252870000000     0.865130000000     0.679650000000     0.84826    
Cu66     Cu     0.169570000000     0.869890000000     0.677960000000     0.881392   
Cu67     Cu     0.095080000000     0.533100000000     0.773140000000     0.849155   
Cu68     Cu     0.014700000000     0.537840000000     0.754470000000     0.865609   
Cu69     Cu     0.916170000000     0.195180000000     0.853280000000     0.866481   
Cu70     Cu     0.840870000000     0.213070000000     0.850490000000     0.850085   
Cu71     Cu     0.788850000000     0.885730000000     0.951420000000     0.861623   
Cu72     Cu     0.698760000000     0.869340000000     0.933900000000     0.842035   
H1       H      0.742680000000     0.042100000000     0.400440000000     0.120309   
H2       H      0.850970000000     0.055120000000     0.419860000000     0.118704   
H3       H      0.917570000000     0.367150000000     0.291340000000     0.118452   
H4       H      0.018760000000     0.362210000000     0.306740000000     0.122133   
H5       H      0.084700000000     0.702220000000     0.220240000000     0.123497   
H6       H      0.190440000000     0.705490000000     0.234660000000     0.117682   
H7       H      0.708990000000     0.708210000000     0.476630000000     0.121804   
H8       H      0.601690000000     0.703460000000     0.476270000000     0.117561   
H9       H      0.262810000000     0.035900000000     0.139450000000     0.120905   
H10      H      0.368970000000     0.037240000000     0.137120000000     0.121056   
H11      H      0.520150000000     0.359780000000     0.031610000000     0.118067   
H12      H      0.416900000000     0.360890000000     0.047050000000     0.121738   
H13      H      0.690960000000     0.802260000000     0.310630000000     0.115801   
H14      H      0.808420000000     0.866870000000     0.321850000000     0.111093   
H15      H      0.683130000000     0.902280000000     0.061090000000     0.115532   
H16      H      0.800910000000     0.965170000000     0.070610000000     0.112147   
H17      H      0.865070000000     0.835650000000     0.160300000000     0.118344   
H18      H      0.758700000000     0.738270000000     0.139500000000     0.119382   
H19      H      0.699930000000     0.011290000000     0.232000000000     0.124084   
H20      H      0.593540000000     0.908340000000     0.220460000000     0.118083   
H21      H      0.004160000000     0.571310000000     0.382380000000     0.112616   
H22      H      0.119530000000     0.623760000000     0.394050000000     0.111641   
H23      H      0.108490000000     0.506460000000     0.144010000000     0.111486   
H24      H      0.993180000000     0.455590000000     0.131370000000     0.112861   
H25      H      0.931380000000     0.591310000000     0.032240000000     0.118385   
H26      H      0.035620000000     0.694300000000     0.047910000000     0.121519   
H27      H      0.331880000000     0.138790000000     0.470730000000     0.117612   
H28      H      0.453120000000     0.204120000000     0.466770000000     0.117368   
H29      H      0.453900000000     0.264180000000     0.217880000000     0.117169   
H30      H      0.332380000000     0.207140000000     0.219390000000     0.116794   
H31      H      0.522610000000     0.169830000000     0.300550000000     0.119582   
H32      H      0.413010000000     0.068830000000     0.301790000000     0.122121   
H33      H      0.075480000000     0.390320000000     0.477360000000     0.122282   
H34      H      0.182510000000     0.490790000000     0.491740000000     0.117793   
H35      H      0.259040000000     0.236680000000     0.396030000000     0.120249   
H36      H      0.362600000000     0.343780000000     0.390440000000     0.118022   
H37      H      0.473510000000     0.490430000000     0.384220000000     0.114463   
H38      H      0.542440000000     0.442730000000     0.375160000000     0.112949   
H39      H      0.571100000000     0.601290000000     0.135830000000     0.114568   
H40      H      0.639760000000     0.553490000000     0.123420000000     0.113916   
H41      H      0.884090000000     0.272080000000     0.474200000000     0.116282   
H42      H      0.938370000000     0.205400000000     0.478640000000     0.117117   
H43      H      0.825950000000     0.215750000000     0.227270000000     0.115625   
H44      H      0.875600000000     0.144670000000     0.226890000000     0.117204   
H45      H      0.157980000000     0.289180000000     0.311470000000     0.116303   
H46      H      0.203600000000     0.408920000000     0.312990000000     0.116385   
H47      H      0.203470000000     0.292570000000     0.062280000000     0.115799   
H48      H      0.261310000000     0.413340000000     0.061870000000     0.11585    
H49      H      0.047560000000     0.332100000000     0.143790000000     0.120981   
H50      H      0.044530000000     0.224970000000     0.145560000000     0.117689   
H51      H      0.377720000000     0.482590000000     0.229020000000     0.118892   
H52      H      0.387570000000     0.383350000000     0.216940000000     0.122619   
H53      H      0.541100000000     0.973630000000     0.385710000000     0.117172   
H54      H      0.612640000000     0.094050000000     0.387770000000     0.117378   
H55      H      0.488480000000     0.981260000000     0.136100000000     0.116532   
H56      H      0.567340000000     0.100320000000     0.136470000000     0.116953   
H57      H      0.709580000000     0.057950000000     0.056510000000     0.11866    
H58      H      0.713290000000     0.165260000000     0.059870000000     0.120133   
H59      H      0.205200000000     0.916590000000     0.305290000000     0.116706   
H60      H      0.262760000000     0.853310000000     0.302040000000     0.115698   
H61      H      0.152070000000     0.862890000000     0.051080000000     0.117491   
H62      H      0.214130000000     0.804160000000     0.056660000000     0.115944   
H63      H      0.380750000000     0.906490000000     0.467870000000     0.120547   
H64      H      0.385070000000     0.014150000000     0.469390000000     0.120913   
H65      H      0.825720000000     0.663020000000     0.462670000000     0.117143   
H66      H      0.890240000000     0.783990000000     0.468010000000     0.116089   
H67      H      0.937680000000     0.783930000000     0.213320000000     0.114752   
H68      H      0.893600000000     0.664020000000     0.215590000000     0.116253   
H69      H      0.713230000000     0.679660000000     0.297170000000     0.11969    
H70      H      0.731870000000     0.587110000000     0.279320000000     0.119041   
H71      H      0.051990000000     0.844450000000     0.381990000000     0.118778   
H72      H      0.044090000000     0.735310000000     0.386280000000     0.119817   
H73      H      0.742680000000     0.042100000000     0.900440000000     0.12044    
H74      H      0.850970000000     0.055120000000     0.919860000000     0.118816   
H75      H      0.917570000000     0.367150000000     0.791340000000     0.118489   
H76      H      0.018760000000     0.362210000000     0.806730000000     0.122137   
H77      H      0.084690000000     0.702220000000     0.720240000000     0.123498   
H78      H      0.190430000000     0.705490000000     0.734660000000     0.117696   
H79      H      0.708990000000     0.708210000000     0.976620000000     0.121932   
H80      H      0.601690000000     0.703460000000     0.976270000000     0.117712   
H81      H      0.262810000000     0.035900000000     0.639450000000     0.120951   
H82      H      0.368970000000     0.037240000000     0.637120000000     0.121105   
H83      H      0.520150000000     0.359780000000     0.531610000000     0.118224   
H84      H      0.416900000000     0.360890000000     0.547050000000     0.121869   
H85      H      0.690960000000     0.802260000000     0.810630000000     0.11582    
H86      H      0.808420000000     0.866870000000     0.821850000000     0.111108   
H87      H      0.683130000000     0.902280000000     0.561090000000     0.115696   
H88      H      0.800910000000     0.965170000000     0.570610000000     0.112263   
H89      H      0.865070000000     0.835650000000     0.660300000000     0.118416   
H90      H      0.758700000000     0.738280000000     0.639500000000     0.119455   
H91      H      0.699930000000     0.011290000000     0.732010000000     0.124075   
H92      H      0.593540000000     0.908340000000     0.720460000000     0.118084   
H93      H      0.004160000000     0.571310000000     0.882380000000     0.112704   
H94      H      0.119530000000     0.623760000000     0.894050000000     0.111689   
H95      H      0.108490000000     0.506460000000     0.644010000000     0.111557   
H96      H      0.993180000000     0.455590000000     0.631370000000     0.112895   
H97      H      0.931390000000     0.591310000000     0.532240000000     0.118588   
H98      H      0.035630000000     0.694300000000     0.547910000000     0.121584   
H99      H      0.331880000000     0.138790000000     0.970730000000     0.117759   
H100     H      0.453120000000     0.204120000000     0.966770000000     0.117677   
H101     H      0.453900000000     0.264190000000     0.717880000000     0.117183   
H102     H      0.332380000000     0.207140000000     0.719400000000     0.116847   
H103     H      0.522610000000     0.169830000000     0.800550000000     0.11961    
H104     H      0.413010000000     0.068830000000     0.801790000000     0.12212    
H105     H      0.075480000000     0.390320000000     0.977360000000     0.122439   
H106     H      0.182510000000     0.490790000000     0.991740000000     0.118096   
H107     H      0.259040000000     0.236680000000     0.896030000000     0.120321   
H108     H      0.362600000000     0.343780000000     0.890440000000     0.118103   
H109     H      0.473510000000     0.490430000000     0.884230000000     0.114517   
H110     H      0.542440000000     0.442730000000     0.875160000000     0.113039   
H111     H      0.571100000000     0.601290000000     0.635830000000     0.114627   
H112     H      0.639760000000     0.553490000000     0.623420000000     0.113959   
H113     H      0.884090000000     0.272080000000     0.974200000000     0.116611   
H114     H      0.938360000000     0.205400000000     0.978640000000     0.117307   
H115     H      0.825950000000     0.215750000000     0.727270000000     0.115635   
H116     H      0.875600000000     0.144670000000     0.726890000000     0.11725    
H117     H      0.157980000000     0.289180000000     0.811470000000     0.116314   
H118     H      0.203600000000     0.408920000000     0.812990000000     0.116395   
H119     H      0.203470000000     0.292570000000     0.562280000000     0.116034   
H120     H      0.261300000000     0.413340000000     0.561870000000     0.116063   
H121     H      0.047560000000     0.332100000000     0.643790000000     0.121037   
H122     H      0.044530000000     0.224970000000     0.645570000000     0.117775   
H123     H      0.377720000000     0.482590000000     0.729020000000     0.118913   
H124     H      0.387570000000     0.383350000000     0.716940000000     0.122623   
H125     H      0.541100000000     0.973630000000     0.885710000000     0.117225   
H126     H      0.612650000000     0.094050000000     0.887770000000     0.117423   
H127     H      0.488480000000     0.981260000000     0.636100000000     0.116583   
H128     H      0.567340000000     0.100320000000     0.636470000000     0.116968   
H129     H      0.709580000000     0.057950000000     0.556510000000     0.118772   
H130     H      0.713290000000     0.165260000000     0.559870000000     0.120235   
H131     H      0.205200000000     0.916590000000     0.805290000000     0.116716   
H132     H      0.262750000000     0.853310000000     0.802040000000     0.115734   
H133     H      0.152070000000     0.862890000000     0.551070000000     0.117742   
H134     H      0.214120000000     0.804160000000     0.556660000000     0.116208   
H135     H      0.380750000000     0.906490000000     0.967870000000     0.120697   
H136     H      0.385070000000     0.014150000000     0.969390000000     0.12105    
H137     H      0.825720000000     0.663020000000     0.962670000000     0.117416   
H138     H      0.890240000000     0.783990000000     0.968010000000     0.116262   
H139     H      0.937680000000     0.783930000000     0.713320000000     0.114751   
H140     H      0.893600000000     0.664020000000     0.715590000000     0.116259   
H141     H      0.713230000000     0.679660000000     0.797170000000     0.119688   
H142     H      0.731870000000     0.587110000000     0.779330000000     0.119069   
H143     H      0.051990000000     0.844450000000     0.881990000000     0.118844   
H144     H      0.044090000000     0.735310000000     0.886280000000     0.119888   
N1       N      0.783910000000     0.058140000000     0.397370000000    -0.174818   
N2       N      0.809740000000     0.032820000000     0.414880000000    -0.174805   
N3       N      0.958780000000     0.382450000000     0.293960000000    -0.176173   
N4       N      0.978150000000     0.350040000000     0.309090000000    -0.175844   
N5       N      0.126020000000     0.717790000000     0.218290000000    -0.177227   
N6       N      0.148910000000     0.688250000000     0.232910000000    -0.176589   
N7       N      0.682390000000     0.721790000000     0.470190000000    -0.174179   
N8       N      0.627090000000     0.687380000000     0.475940000000    -0.174229   
N9       N      0.288030000000     0.019810000000     0.142480000000    -0.176073   
N10      N      0.342640000000     0.051830000000     0.133310000000    -0.175223   
N11      N      0.495940000000     0.377080000000     0.033990000000    -0.175626   
N12      N      0.444130000000     0.347250000000     0.049940000000    -0.175625   
N13      N      0.728150000000     0.834460000000     0.302690000000    -0.174197   
N14      N      0.769500000000     0.855590000000     0.330560000000    -0.173848   
N15      N      0.721280000000     0.910050000000     0.053030000000    -0.174103   
N16      N      0.763360000000     0.935220000000     0.080160000000    -0.174967   
N17      N      0.823490000000     0.814050000000     0.156960000000    -0.176813   
N18      N      0.799630000000     0.765180000000     0.136620000000    -0.175969   
N19      N      0.674720000000     0.971490000000     0.223710000000    -0.176642   
N20      N      0.618870000000     0.948920000000     0.226480000000    -0.175723   
N21      N      0.040090000000     0.573340000000     0.374450000000    -0.173908   
N22      N      0.081780000000     0.592590000000     0.402050000000    -0.173746   
N23      N      0.072180000000     0.503370000000     0.152210000000    -0.174129   
N24      N      0.031280000000     0.486870000000     0.124190000000    -0.173563   
N25      N      0.972680000000     0.614550000000     0.036540000000    -0.174354   
N26      N      0.994500000000     0.667750000000     0.049820000000    -0.17466    
N27      N      0.370870000000     0.156370000000     0.481650000000    -0.17625    
N28      N      0.414290000000     0.181950000000     0.455650000000    -0.17624    
N29      N      0.415540000000     0.248030000000     0.205990000000    -0.175556   
N30      N      0.370900000000     0.228930000000     0.231100000000    -0.1756     
N31      N      0.495130000000     0.129110000000     0.296930000000    -0.176306   
N32      N      0.440840000000     0.109380000000     0.305670000000    -0.176112   
N33      N      0.116940000000     0.415050000000     0.475410000000    -0.175464   
N34      N      0.140970000000     0.468390000000     0.488560000000    -0.175139   
N35      N      0.283050000000     0.278230000000     0.398390000000    -0.175632   
N36      N      0.336930000000     0.302810000000     0.386270000000    -0.174687   
N37      N      0.507960000000     0.489630000000     0.392520000000    -0.173797   
N38      N      0.531130000000     0.470090000000     0.365710000000    -0.174313   
N39      N      0.581580000000     0.572530000000     0.143110000000    -0.174212   
N40      N      0.607660000000     0.558340000000     0.114910000000    -0.174642   
N41      N      0.904600000000     0.253520000000     0.463280000000    -0.17609    
N42      N      0.924580000000     0.230180000000     0.489550000000    -0.176063   
N43      N      0.837310000000     0.189870000000     0.214750000000    -0.175972   
N44      N      0.854870000000     0.162210000000     0.239150000000    -0.175825   
N45      N      0.167630000000     0.326300000000     0.299480000000    -0.176399   
N46      N      0.182440000000     0.370210000000     0.324530000000    -0.176228   
N47      N      0.226830000000     0.330390000000     0.049730000000    -0.175908   
N48      N      0.250040000000     0.375910000000     0.074040000000    -0.17628    
N49      N      0.030770000000     0.290790000000     0.140180000000    -0.176748   
N50      N      0.060800000000     0.266110000000     0.149690000000    -0.176155   
N51      N      0.364180000000     0.442280000000     0.223010000000    -0.175589   
N52      N      0.400000000000     0.422680000000     0.225380000000    -0.175565   
N53      N      0.568490000000     0.011090000000     0.374200000000    -0.176263   
N54      N      0.593680000000     0.055390000000     0.399480000000    -0.17638    
N55      N      0.508060000000     0.019800000000     0.124180000000    -0.176263   
N56      N      0.538950000000     0.063840000000     0.148760000000    -0.1764     
N57      N      0.696280000000     0.085220000000     0.052030000000    -0.175265   
N58      N      0.728410000000     0.139230000000     0.062990000000    -0.176183   
N59      N      0.229620000000     0.903790000000     0.292220000000    -0.176178   
N60      N      0.251050000000     0.878470000000     0.315350000000    -0.176331   
N61      N      0.167610000000     0.839380000000     0.040610000000    -0.176169   
N62      N      0.190590000000     0.819600000000     0.067250000000    -0.176559   
N63      N      0.365520000000     0.932420000000     0.464730000000    -0.175619   
N64      N      0.398750000000     0.987120000000     0.473460000000    -0.17535    
N65      N      0.841820000000     0.702180000000     0.452290000000    -0.175672   
N66      N      0.868620000000     0.744870000000     0.478730000000    -0.175585   
N67      N      0.927350000000     0.747380000000     0.226630000000    -0.175536   
N68      N      0.914470000000     0.702180000000     0.203150000000    -0.175457   
N69      N      0.732760000000     0.657460000000     0.298890000000    -0.175635   
N70      N      0.709000000000     0.605750000000     0.282790000000    -0.176138   
N71      N      0.033920000000     0.802970000000     0.378650000000    -0.176677   
N72      N      0.061760000000     0.776710000000     0.389820000000    -0.176183   
N73      N      0.783900000000     0.058140000000     0.897380000000    -0.174779   
N74      N      0.809740000000     0.032820000000     0.914880000000    -0.174778   
N75      N      0.958780000000     0.382450000000     0.793950000000    -0.176209   
N76      N      0.978150000000     0.350040000000     0.809090000000    -0.175807   
N77      N      0.126010000000     0.717790000000     0.718290000000    -0.177219   
N78      N      0.148900000000     0.688250000000     0.732910000000    -0.176629   
N79      N      0.682380000000     0.721790000000     0.970190000000    -0.17409    
N80      N      0.627090000000     0.687380000000     0.975940000000    -0.174157   
N81      N      0.288030000000     0.019810000000     0.642480000000    -0.176057   
N82      N      0.342640000000     0.051830000000     0.633310000000    -0.175203   
N83      N      0.495940000000     0.377080000000     0.533990000000    -0.17556    
N84      N      0.444130000000     0.347250000000     0.549940000000    -0.175587   
N85      N      0.728150000000     0.834460000000     0.802690000000    -0.174202   
N86      N      0.769500000000     0.855590000000     0.830570000000    -0.173911   
N87      N      0.721290000000     0.910050000000     0.553030000000    -0.174185   
N88      N      0.763360000000     0.935220000000     0.580160000000    -0.174949   
N89      N      0.823500000000     0.814060000000     0.656960000000    -0.176875   
N90      N      0.799630000000     0.765180000000     0.636620000000    -0.175996   
N91      N      0.674720000000     0.971490000000     0.723710000000    -0.176615   
N92      N      0.618870000000     0.948930000000     0.726480000000    -0.175744   
N93      N      0.040090000000     0.573340000000     0.874450000000    -0.173831   
N94      N      0.081780000000     0.592590000000     0.902050000000    -0.173686   
N95      N      0.072180000000     0.503370000000     0.652220000000    -0.174214   
N96      N      0.031280000000     0.486870000000     0.624190000000    -0.173565   
N97      N      0.972680000000     0.614550000000     0.536540000000    -0.174347   
N98      N      0.994490000000     0.667750000000     0.549810000000    -0.174592   
N99      N      0.370880000000     0.156370000000     0.981650000000    -0.175622   
N100     N      0.414290000000     0.181950000000     0.955650000000    -0.176128   
N101     N      0.415540000000     0.248030000000     0.705990000000    -0.175573   
N102     N      0.370890000000     0.228940000000     0.731100000000    -0.17565    
N103     N      0.495130000000     0.129110000000     0.796930000000    -0.176312   
N104     N      0.440840000000     0.109380000000     0.805670000000    -0.176107   
N105     N      0.116940000000     0.415050000000     0.975400000000    -0.175427   
N106     N      0.140970000000     0.468390000000     0.988560000000    -0.175244   
N107     N      0.283050000000     0.278230000000     0.898400000000    -0.175624   
N108     N      0.336930000000     0.302810000000     0.886270000000    -0.174662   
N109     N      0.507960000000     0.489630000000     0.892520000000    -0.173777   
N110     N      0.531130000000     0.470090000000     0.865700000000    -0.174403   
N111     N      0.581580000000     0.572530000000     0.643110000000    -0.174102   
N112     N      0.607660000000     0.558340000000     0.614910000000    -0.174621   
N113     N      0.904600000000     0.253520000000     0.963280000000    -0.176027   
N114     N      0.924570000000     0.230180000000     0.989550000000    -0.175512   
N115     N      0.837310000000     0.189870000000     0.714750000000    -0.175994   
N116     N      0.854870000000     0.162200000000     0.739150000000    -0.175868   
N117     N      0.167630000000     0.326300000000     0.799480000000    -0.176396   
N118     N      0.182440000000     0.370210000000     0.824530000000    -0.176228   
N119     N      0.226830000000     0.330390000000     0.549730000000    -0.176211   
N120     N      0.250040000000     0.375910000000     0.574040000000    -0.176192   
N121     N      0.030770000000     0.290790000000     0.640180000000    -0.176768   
N122     N      0.060810000000     0.266110000000     0.649690000000    -0.176213   
N123     N      0.364180000000     0.442280000000     0.723010000000    -0.175572   
N124     N      0.400000000000     0.422680000000     0.725380000000    -0.17556    
N125     N      0.568490000000     0.011090000000     0.874200000000    -0.176251   
N126     N      0.593680000000     0.055390000000     0.899480000000    -0.176316   
N127     N      0.508070000000     0.019800000000     0.624180000000    -0.176281   
N128     N      0.538950000000     0.063840000000     0.648760000000    -0.176407   
N129     N      0.696280000000     0.085220000000     0.552030000000    -0.175233   
N130     N      0.728410000000     0.139230000000     0.562990000000    -0.176177   
N131     N      0.229620000000     0.903790000000     0.792220000000    -0.176183   
N132     N      0.251050000000     0.878470000000     0.815350000000    -0.176345   
N133     N      0.167610000000     0.839380000000     0.540610000000    -0.17649    
N134     N      0.190590000000     0.819600000000     0.567250000000    -0.17656    
N135     N      0.365520000000     0.932420000000     0.964730000000    -0.175577   
N136     N      0.398750000000     0.987120000000     0.973470000000    -0.175265   
N137     N      0.841820000000     0.702180000000     0.952300000000    -0.175613   
N138     N      0.868620000000     0.744870000000     0.978730000000    -0.174987   
N139     N      0.927350000000     0.747380000000     0.726630000000    -0.175538   
N140     N      0.914470000000     0.702180000000     0.703150000000    -0.175463   
N141     N      0.732760000000     0.657460000000     0.798890000000    -0.175602   
N142     N      0.709000000000     0.605750000000     0.782790000000    -0.176145   
N143     N      0.033920000000     0.802970000000     0.878650000000    -0.176657   
N144     N      0.061760000000     0.776710000000     0.889820000000    -0.176152   
O1       O      0.806900000000     0.730440000000     0.322550000000    -0.395919   
O2       O      0.960940000000     0.804140000000     0.356880000000    -0.403245   
O3       O      0.908460000000     0.777800000000     0.282680000000    -0.391965   
O4       O      0.862580000000     0.754370000000     0.397330000000    -0.385967   
O5       O      0.854120000000     0.673200000000     0.394080000000    -0.400832   
O6       O      0.907740000000     0.700060000000     0.283180000000    -0.396334   
O7       O      0.958740000000     0.725730000000     0.359280000000    -0.387668   
O8       O      0.805900000000     0.652750000000     0.318450000000    -0.392561   
O9       O      0.290220000000     0.936490000000     0.447160000000    -0.381041   
O10      O      0.134960000000     0.855160000000     0.409050000000    -0.390486   
O11      O      0.185320000000     0.884300000000     0.483570000000    -0.40186    
O12      O      0.235570000000     0.908700000000     0.372120000000    -0.397326   
O13      O      0.237890000000     0.832470000000     0.372190000000    -0.395905   
O14      O      0.191000000000     0.809950000000     0.486110000000    -0.391473   
O15      O      0.136910000000     0.778840000000     0.411520000000    -0.399934   
O16      O      0.290100000000     0.859050000000     0.446130000000    -0.406365   
O17      O      0.631500000000     0.102410000000     0.031020000000    -0.395888   
O18      O      0.480800000000     0.054730000000     0.493430000000    -0.388804   
O19      O      0.533290000000     0.069490000000     0.068570000000    -0.394962   
O20      O      0.582950000000     0.089330000000     0.456300000000    -0.398482   
O21      O      0.564330000000     0.004350000000     0.454480000000    -0.394435   
O22      O      0.513850000000     0.984240000000     0.066640000000    -0.399207   
O23      O      0.465100000000     0.970840000000     0.491980000000    -0.396222   
O24      O      0.615430000000     0.018370000000     0.029900000000    -0.391407   
O25      O      0.284770000000     0.434140000000     0.206090000000    -0.400522   
O26      O      0.132220000000     0.345530000000     0.168840000000    -0.393962   
O27      O      0.184730000000     0.375660000000     0.243940000000    -0.394484   
O28      O      0.234330000000     0.404780000000     0.131440000000    -0.398956   
O29      O      0.237010000000     0.328750000000     0.130160000000    -0.393735   
O30      O      0.190820000000     0.301470000000     0.243300000000    -0.398115   
O31      O      0.138360000000     0.271420000000     0.169620000000    -0.397057   
O32      O      0.293240000000     0.361370000000     0.204380000000    -0.387022   
O33      O      0.955600000000     0.288900000000     0.119420000000    -0.402137   
O34      O      0.803110000000     0.211640000000     0.083720000000    -0.407417   
O35      O      0.854000000000     0.236750000000     0.158020000000    -0.396224   
O36      O      0.902390000000     0.259960000000     0.044490000000    -0.391487   
O37      O      0.906890000000     0.184950000000     0.046640000000    -0.398819   
O38      O      0.855560000000     0.160140000000     0.158450000000    -0.392434   
O39      O      0.802190000000     0.133800000000     0.082460000000    -0.382047   
O40      O      0.957050000000     0.212280000000     0.121580000000    -0.388606   
O41      O      0.625880000000     0.597170000000     0.275790000000    -0.385576   
O42      O      0.468320000000     0.502740000000     0.247540000000    -0.389339   
O43      O      0.531030000000     0.523940000000     0.317370000000    -0.390153   
O44      O      0.561220000000     0.577890000000     0.206200000000    -0.399139   
O45      O      0.577400000000     0.512610000000     0.189140000000    -0.382438   
O46      O      0.549140000000     0.459340000000     0.302330000000    -0.392116   
O47      O      0.484070000000     0.436540000000     0.232700000000    -0.395399   
O48      O      0.639990000000     0.530690000000     0.258210000000    -0.403572   
O49      O      0.122650000000     0.343380000000     0.454500000000    -0.396243   
O50      O      0.208170000000     0.275440000000     0.419680000000    -0.404963   
O51      O      0.179680000000     0.298490000000     0.493460000000    -0.398215   
O52      O      0.154450000000     0.320280000000     0.380140000000    -0.393946   
O53      O      0.225740000000     0.402510000000     0.381850000000    -0.398624   
O54      O      0.253940000000     0.378650000000     0.493490000000    -0.394262   
O55      O      0.282950000000     0.355030000000     0.417370000000    -0.381943   
O56      O      0.196990000000     0.423250000000     0.457170000000    -0.388542   
O57      O      0.323120000000     0.222300000000     0.364920000000    -0.398651   
O58      O      0.373990000000     0.123370000000     0.326260000000    -0.396145   
O59      O      0.360760000000     0.159540000000     0.401700000000    -0.393136   
O60      O      0.337090000000     0.188150000000     0.289380000000    -0.395951   
O61      O      0.421360000000     0.255610000000     0.286580000000    -0.391853   
O62      O      0.444590000000     0.227860000000     0.398810000000    -0.397586   
O63      O      0.457490000000     0.192310000000     0.324110000000    -0.392917   
O64      O      0.405750000000     0.292430000000     0.362540000000    -0.387442   
O65      O      0.061120000000     0.467010000000     0.492860000000    -0.387411   
O66      O      0.977790000000     0.542820000000     0.015720000000    -0.396886   
O67      O      0.030220000000     0.532000000000     0.448450000000    -0.386202   
O68      O      0.006660000000     0.478060000000     0.060330000000    -0.396271   
O69      O      0.083380000000     0.549560000000     0.078610000000    -0.38128    
O70      O      0.106870000000     0.604050000000     0.466140000000    -0.39308    
O71      O      0.052940000000     0.616060000000     0.034060000000    -0.383255   
O72      O      0.136610000000     0.540150000000     0.510810000000    -0.395375   
O73      O      0.744720000000     0.813110000000     0.168020000000    -0.387337   
O74      O      0.669340000000     0.894390000000     0.200860000000    -0.390084   
O75      O      0.712800000000     0.879730000000     0.129160000000    -0.389278   
O76      O      0.698810000000     0.825800000000     0.240160000000    -0.396844   
O77      O      0.777460000000     0.896650000000     0.255930000000    -0.385232   
O78      O      0.793360000000     0.948980000000     0.143170000000    -0.394921   
O79      O      0.748970000000     0.965490000000     0.214110000000    -0.399786   
O80      O      0.822720000000     0.883730000000     0.185420000000    -0.406169   
O81      O      0.811590000000     0.700890000000     0.107850000000    -0.395687   
O82      O      0.912160000000     0.652090000000     0.068240000000    -0.394913   
O83      O      0.877380000000     0.665700000000     0.144280000000    -0.393325   
O84      O      0.848220000000     0.689630000000     0.031760000000    -0.390369   
O85      O      0.915490000000     0.773920000000     0.035370000000    -0.397865   
O86      O      0.944130000000     0.750390000000     0.147070000000    -0.395489   
O87      O      0.981150000000     0.735440000000     0.071370000000    -0.388767   
O88      O      0.880180000000     0.784540000000     0.111330000000    -0.395489   
O89      O      0.483210000000     0.047160000000     0.279120000000    -0.387128   
O90      O      0.546230000000     0.956000000000     0.242640000000    -0.395899   
O91      O      0.523780000000     0.985240000000     0.316800000000    -0.399687   
O92      O      0.505530000000     0.015460000000     0.204440000000    -0.395383   
O93      O      0.586390000000     0.088790000000     0.205290000000    -0.398393   
O94      O      0.603290000000     0.060200000000     0.318790000000    -0.393785   
O95      O      0.627350000000     0.028720000000     0.244890000000    -0.39389    
O96      O      0.564750000000     0.119510000000     0.278600000000    -0.404384   
O97      O      0.410760000000     0.132620000000     0.112110000000    -0.38912    
O98      O      0.461210000000     0.282980000000     0.072310000000    -0.394132   
O99      O      0.447960000000     0.235650000000     0.148580000000    -0.393083   
O100     O      0.423590000000     0.182940000000     0.036160000000    -0.391129   
O101     O      0.339340000000     0.166080000000     0.039800000000    -0.399528   
O102     O      0.363870000000     0.219370000000     0.151230000000    -0.395844   
O103     O      0.377920000000     0.268910000000     0.075300000000    -0.39335    
O104     O      0.327720000000     0.119040000000     0.114820000000    -0.397815   
O105     O      0.564480000000     0.453000000000     0.008580000000    -0.397021   
O106     O      0.633420000000     0.611340000000     0.481970000000    -0.383334   
O107     O      0.623730000000     0.548590000000     0.051250000000    -0.395915   
O108     O      0.572650000000     0.511240000000     0.438870000000    -0.38484    
O109     O      0.497200000000     0.510410000000     0.454690000000    -0.395278   
O110     O      0.549330000000     0.550070000000     0.066680000000    -0.386357   
O111     O      0.556730000000     0.608740000000     0.496220000000    -0.396026   
O112     O      0.489190000000     0.451960000000     0.025260000000    -0.389207   
O113     O      0.290170000000     0.943560000000     0.160260000000    -0.38214    
O114     O      0.206200000000     0.788670000000     0.199180000000    -0.389989   
O115     O      0.236270000000     0.838260000000     0.124140000000    -0.400337   
O116     O      0.260890000000     0.889180000000     0.235600000000    -0.397323   
O117     O      0.185910000000     0.893790000000     0.234790000000    -0.397117   
O118     O      0.163210000000     0.846120000000     0.121190000000    -0.392628   
O119     O      0.131410000000     0.793410000000     0.195500000000    -0.404573   
O120     O      0.213820000000     0.945510000000     0.160860000000    -0.411171   
O121     O      0.139200000000     0.611100000000     0.258120000000    -0.397423   
O122     O      0.042590000000     0.454920000000     0.286330000000    -0.389245   
O123     O      0.097960000000     0.514250000000     0.216060000000    -0.394717   
O124     O      0.085590000000     0.554910000000     0.328050000000    -0.383095   
O125     O      0.011980000000     0.557160000000     0.311300000000    -0.396792   
O126     O      0.024590000000     0.517100000000     0.199500000000    -0.386173   
O127     O      0.970740000000     0.460170000000     0.269090000000    -0.402073   
O128     O      0.066560000000     0.615260000000     0.241560000000    -0.396414   
O129     O      0.963090000000     0.270540000000     0.333240000000    -0.397088   
O130     O      0.863510000000     0.122330000000     0.373450000000    -0.399654   
O131     O      0.896520000000     0.168770000000     0.297110000000    -0.394577   
O132     O      0.926970000000     0.222500000000     0.409230000000    -0.392347   
O133     O      0.860500000000     0.240780000000     0.405920000000    -0.397711   
O134     O      0.829530000000     0.186370000000     0.294850000000    -0.395896   
O135     O      0.794270000000     0.136370000000     0.371460000000    -0.38677    
O136     O      0.895120000000     0.286560000000     0.329810000000    -0.39151    
O137     O      0.753480000000     0.805930000000     0.462890000000    -0.390778   
O138     O      0.815410000000     0.962870000000     0.438140000000    -0.401764   
O139     O      0.773070000000     0.900380000000     0.506800000000    -0.386055   
O140     O      0.796770000000     0.872130000000     0.394030000000    -0.395674   
O141     O      0.714240000000     0.854220000000     0.378780000000    -0.385528   
O142     O      0.692020000000     0.886090000000     0.490640000000    -0.394332   
O143     O      0.735150000000     0.949290000000     0.420310000000    -0.381564   
O144     O      0.671710000000     0.791440000000     0.449260000000    -0.3859     
O145     O      0.806900000000     0.730440000000     0.822550000000    -0.395877   
O146     O      0.960940000000     0.804140000000     0.856890000000    -0.403211   
O147     O      0.908460000000     0.777800000000     0.782680000000    -0.391976   
O148     O      0.862580000000     0.754360000000     0.897330000000    -0.385968   
O149     O      0.854110000000     0.673200000000     0.894080000000    -0.400829   
O150     O      0.907740000000     0.700060000000     0.783180000000    -0.396341   
O151     O      0.958740000000     0.725730000000     0.859280000000    -0.387639   
O152     O      0.805900000000     0.652740000000     0.818450000000    -0.392445   
O153     O      0.290220000000     0.936490000000     0.947170000000    -0.380927   
O154     O      0.134960000000     0.855160000000     0.909050000000    -0.390401   
O155     O      0.185320000000     0.884300000000     0.983570000000    -0.400491   
O156     O      0.235560000000     0.908700000000     0.872120000000    -0.397266   
O157     O      0.237890000000     0.832470000000     0.872190000000    -0.395865   
O158     O      0.191000000000     0.809950000000     0.986110000000    -0.390093   
O159     O      0.136910000000     0.778840000000     0.911520000000    -0.399845   
O160     O      0.290100000000     0.859050000000     0.946130000000    -0.406254   
O161     O      0.631500000000     0.102410000000     0.531020000000    -0.395948   
O162     O      0.480800000000     0.054730000000     0.993430000000    -0.388015   
O163     O      0.533290000000     0.069490000000     0.568570000000    -0.395079   
O164     O      0.582950000000     0.089330000000     0.956300000000    -0.397731   
O165     O      0.564330000000     0.004350000000     0.954480000000    -0.393717   
O166     O      0.513850000000     0.984240000000     0.566640000000    -0.399285   
O167     O      0.465100000000     0.970840000000     0.991980000000    -0.395457   
O168     O      0.615440000000     0.018370000000     0.529900000000    -0.391378   
O169     O      0.284780000000     0.434140000000     0.706090000000    -0.400637   
O170     O      0.132220000000     0.345530000000     0.668840000000    -0.393953   
O171     O      0.184730000000     0.375660000000     0.743940000000    -0.394486   
O172     O      0.234330000000     0.404780000000     0.631440000000    -0.398883   
O173     O      0.237010000000     0.328750000000     0.630160000000    -0.393698   
O174     O      0.190820000000     0.301470000000     0.743300000000    -0.398119   
O175     O      0.138360000000     0.271420000000     0.669620000000    -0.397048   
O176     O      0.293240000000     0.361370000000     0.704380000000    -0.387064   
O177     O      0.955600000000     0.288890000000     0.619420000000    -0.402224   
O178     O      0.803110000000     0.211630000000     0.583720000000    -0.40747    
O179     O      0.854000000000     0.236750000000     0.658020000000    -0.396202   
O180     O      0.902400000000     0.259960000000     0.544490000000    -0.391538   
O181     O      0.906890000000     0.184950000000     0.546640000000    -0.398876   
O182     O      0.855560000000     0.160140000000     0.658460000000    -0.392496   
O183     O      0.802190000000     0.133800000000     0.582460000000    -0.381991   
O184     O      0.957050000000     0.212280000000     0.621580000000    -0.388661   
O185     O      0.625880000000     0.597170000000     0.775790000000    -0.385557   
O186     O      0.468320000000     0.502740000000     0.747540000000    -0.38932    
O187     O      0.531030000000     0.523930000000     0.817370000000    -0.390268   
O188     O      0.561220000000     0.577890000000     0.706200000000    -0.399081   
O189     O      0.577400000000     0.512600000000     0.689140000000    -0.382442   
O190     O      0.549140000000     0.459340000000     0.802330000000    -0.392165   
O191     O      0.484070000000     0.436540000000     0.732700000000    -0.395391   
O192     O      0.639990000000     0.530690000000     0.758210000000    -0.403553   
O193     O      0.122650000000     0.343380000000     0.954500000000    -0.396135   
O194     O      0.208170000000     0.275440000000     0.919690000000    -0.404881   
O195     O      0.179680000000     0.298490000000     0.993460000000    -0.396863   
O196     O      0.154450000000     0.320280000000     0.880130000000    -0.393908   
O197     O      0.225740000000     0.402510000000     0.881850000000    -0.398596   
O198     O      0.253940000000     0.378650000000     0.993500000000    -0.392854   
O199     O      0.282950000000     0.355030000000     0.917360000000    -0.38184    
O200     O      0.196990000000     0.423250000000     0.957170000000    -0.388419   
O201     O      0.323120000000     0.222300000000     0.864910000000    -0.398633   
O202     O      0.373990000000     0.123370000000     0.826260000000    -0.396148   
O203     O      0.360760000000     0.159540000000     0.901700000000    -0.393154   
O204     O      0.337090000000     0.188150000000     0.789380000000    -0.39592    
O205     O      0.421360000000     0.255610000000     0.786580000000    -0.391865   
O206     O      0.444590000000     0.227860000000     0.898810000000    -0.397561   
O207     O      0.457490000000     0.192310000000     0.824110000000    -0.392903   
O208     O      0.405750000000     0.292430000000     0.862540000000    -0.387392   
O209     O      0.061120000000     0.467010000000     0.992860000000    -0.386997   
O210     O      0.977790000000     0.542830000000     0.515720000000    -0.396924   
O211     O      0.030220000000     0.532000000000     0.948450000000    -0.385474   
O212     O      0.006660000000     0.478060000000     0.560330000000    -0.396329   
O213     O      0.083380000000     0.549560000000     0.578610000000    -0.381351   
O214     O      0.106870000000     0.604050000000     0.966140000000    -0.39237    
O215     O      0.052950000000     0.616070000000     0.534060000000    -0.383132   
O216     O      0.136610000000     0.540150000000     0.010810000000    -0.396426   
O217     O      0.744730000000     0.813110000000     0.668020000000    -0.387365   
O218     O      0.669340000000     0.894390000000     0.700860000000    -0.390081   
O219     O      0.712810000000     0.879730000000     0.629160000000    -0.389299   
O220     O      0.698810000000     0.825800000000     0.740160000000    -0.39685    
O221     O      0.777460000000     0.896650000000     0.755930000000    -0.385233   
O222     O      0.793360000000     0.948980000000     0.643170000000    -0.394932   
O223     O      0.748970000000     0.965500000000     0.714110000000    -0.399741   
O224     O      0.822720000000     0.883730000000     0.685420000000    -0.406193   
O225     O      0.811600000000     0.700890000000     0.607850000000    -0.395593   
O226     O      0.912170000000     0.652090000000     0.568240000000    -0.39495    
O227     O      0.877380000000     0.665700000000     0.644280000000    -0.393363   
O228     O      0.848230000000     0.689630000000     0.531760000000    -0.390288   
O229     O      0.915490000000     0.773920000000     0.535370000000    -0.397796   
O230     O      0.944130000000     0.750390000000     0.647070000000    -0.395532   
O231     O      0.981150000000     0.735440000000     0.571370000000    -0.388796   
O232     O      0.880180000000     0.784540000000     0.611330000000    -0.395364   
O233     O      0.483210000000     0.047160000000     0.779120000000    -0.387113   
O234     O      0.546230000000     0.956000000000     0.742640000000    -0.395902   
O235     O      0.523780000000     0.985250000000     0.816800000000    -0.399711   
O236     O      0.505540000000     0.015460000000     0.704440000000    -0.395442   
O237     O      0.586390000000     0.088790000000     0.705290000000    -0.398388   
O238     O      0.603300000000     0.060200000000     0.818790000000    -0.393778   
O239     O      0.627350000000     0.028720000000     0.744890000000    -0.393888   
O240     O      0.564750000000     0.119520000000     0.778590000000    -0.404296   
O241     O      0.410760000000     0.132620000000     0.612110000000    -0.389088   
O242     O      0.461210000000     0.282980000000     0.572310000000    -0.394085   
O243     O      0.447960000000     0.235650000000     0.648580000000    -0.393104   
O244     O      0.423590000000     0.182940000000     0.536160000000    -0.391042   
O245     O      0.339340000000     0.166080000000     0.539810000000    -0.39951    
O246     O      0.363870000000     0.219370000000     0.651230000000    -0.395886   
O247     O      0.377920000000     0.268910000000     0.575300000000    -0.393315   
O248     O      0.327720000000     0.119040000000     0.614820000000    -0.397791   
O249     O      0.564480000000     0.453000000000     0.508580000000    -0.3962     
O250     O      0.633420000000     0.611340000000     0.981970000000    -0.383365   
O251     O      0.623730000000     0.548590000000     0.551250000000    -0.395179   
O252     O      0.572650000000     0.511240000000     0.938870000000    -0.384946   
O253     O      0.497200000000     0.510410000000     0.954690000000    -0.394556   
O254     O      0.549330000000     0.550070000000     0.566680000000    -0.386458   
O255     O      0.556730000000     0.608740000000     0.996230000000    -0.395155   
O256     O      0.489190000000     0.451960000000     0.525260000000    -0.389254   
O257     O      0.290170000000     0.943560000000     0.660260000000    -0.382122   
O258     O      0.206200000000     0.788670000000     0.699180000000    -0.389996   
O259     O      0.236260000000     0.838260000000     0.624140000000    -0.400396   
O260     O      0.260890000000     0.889180000000     0.735600000000    -0.397345   
O261     O      0.185910000000     0.893790000000     0.734790000000    -0.397136   
O262     O      0.163210000000     0.846120000000     0.621190000000    -0.392645   
O263     O      0.131410000000     0.793410000000     0.695500000000    -0.404592   
O264     O      0.213820000000     0.945510000000     0.660860000000    -0.411155   
O265     O      0.139190000000     0.611100000000     0.758120000000    -0.397536   
O266     O      0.042590000000     0.454920000000     0.786330000000    -0.389247   
O267     O      0.097960000000     0.514240000000     0.716060000000    -0.39472    
O268     O      0.085590000000     0.554900000000     0.828050000000    -0.383068   
O269     O      0.011980000000     0.557160000000     0.811300000000    -0.396825   
O270     O      0.024600000000     0.517100000000     0.699500000000    -0.386285   
O271     O      0.970740000000     0.460170000000     0.769090000000    -0.402068   
O272     O      0.066560000000     0.615260000000     0.741560000000    -0.396453   
O273     O      0.963090000000     0.270540000000     0.833240000000    -0.397046   
O274     O      0.863520000000     0.122330000000     0.873450000000    -0.399532   
O275     O      0.896520000000     0.168770000000     0.797110000000    -0.394593   
O276     O      0.926970000000     0.222500000000     0.909230000000    -0.392309   
O277     O      0.860500000000     0.240780000000     0.905920000000    -0.397625   
O278     O      0.829530000000     0.186370000000     0.794850000000    -0.395919   
O279     O      0.794270000000     0.136370000000     0.871460000000    -0.386691   
O280     O      0.895110000000     0.286560000000     0.829810000000    -0.391392   
O281     O      0.753480000000     0.805920000000     0.962890000000    -0.390623   
O282     O      0.815410000000     0.962870000000     0.938140000000    -0.401652   
O283     O      0.773070000000     0.900380000000     0.006800000000    -0.386583   
O284     O      0.796770000000     0.872130000000     0.894030000000    -0.395706   
O285     O      0.714240000000     0.854220000000     0.878770000000    -0.385597   
O286     O      0.692020000000     0.886090000000     0.990640000000    -0.393201   
O287     O      0.735150000000     0.949290000000     0.920310000000    -0.38149    
O288     O      0.671710000000     0.791440000000     0.949260000000    -0.385786   


