data_structure

_audit_creation_method RASPA-1.0
_audit_creation_date 2023-6-4
_audit_author_name 'Poobodin Mano'

_cell_length_a    22.6871
_cell_length_b    24.0888
_cell_length_c    34.5202
_cell_angle_alpha 89.9989
_cell_angle_beta  89.9989
_cell_angle_gamma 97.7723
_cell_volume      18692.2

_symmetry_cell_setting          triclinic
_symmetry_space_group_name_Hall 'P 1'
_symmetry_space_group_name_H-M  'P 1'
_symmetry_Int_Tables_number     1

_symmetry_equiv_pos_as_xyz 'x,y,z'

loop_
_atom_site_label
_atom_site_type_symbol
_atom_site_fract_x
_atom_site_fract_y
_atom_site_fract_z
_atom_site_charge
C1       C      0.478860000000     0.067260000000     0.092870000000     0.404407   
C2       C      0.128360000000     0.404750000000     0.114030000000     0.406111   
C3       C      0.471280000000     0.410840000000     0.141410000000     0.43929    
C4       C      0.140670000000     0.068780000000     0.077990000000     0.44609    
C5       C      0.136980000000     0.411010000000     0.366430000000     0.399668   
C6       C      0.454010000000     0.028380000000     0.355590000000     0.398916   
C7       C      0.117120000000     0.061770000000     0.374410000000     0.436925   
C8       C      0.480870000000     0.379240000000     0.348220000000     0.455083   
C9       C      0.314100000000     0.238400000000     0.539110000000     0.537757   
C10      C      0.289610000000     0.222830000000     0.185220000000     0.553266   
C11      C      0.402070000000     0.186130000000     0.612660000000     0.506144   
C12      C      0.212000000000     0.283900000000     0.104700000000     0.52922    
C13      C      0.309850000000     0.238880000000     0.289980000000     0.538695   
C14      C      0.291260000000     0.211670000000     0.435420000000     0.553857   
C15      C      0.361490000000     0.142410000000     0.348190000000     0.519401   
C16      C      0.253340000000     0.316140000000     0.359210000000     0.504662   
C17      C      0.487970000000     0.068190000000     0.592680000000     0.397761   
C18      C      0.127450000000     0.405000000000     0.612950000000     0.399937   
C19      C      0.467790000000     0.417090000000     0.629100000000     0.444155   
C20      C      0.150870000000     0.052410000000     0.583670000000     0.44683    
C21      C      0.146700000000     0.427080000000     0.865590000000     0.400603   
C22      C      0.467150000000     0.046900000000     0.859440000000     0.399605   
C23      C      0.133240000000     0.075300000000     0.875280000000     0.435095   
C24      C      0.495710000000     0.389370000000     0.846380000000     0.452732   
C25      C      0.323570000000     0.253300000000     0.040950000000     0.540133   
C26      C      0.299710000000     0.232300000000     0.686220000000     0.540413   
C27      C      0.400580000000     0.188570000000     0.113150000000     0.532795   
C28      C      0.212130000000     0.283400000000     0.607720000000     0.51248    
C29      C      0.322460000000     0.255990000000     0.790380000000     0.506159   
C30      C      0.303570000000     0.231460000000     0.936380000000     0.524925   
C31      C      0.375830000000     0.161890000000     0.850500000000     0.489722   
C32      C      0.263800000000     0.333170000000     0.858660000000     0.478299   
C33      C      0.478900000000     0.560310000000     0.105370000000     0.399112   
C34      C      0.137740000000     0.920180000000     0.102340000000     0.400214   
C35      C      0.470260000000     0.908850000000     0.115760000000     0.431661   
C36      C      0.134490000000     0.552030000000     0.073220000000     0.439612   
C37      C      0.133930000000     0.905790000000     0.355750000000     0.400648   
C38      C      0.451060000000     0.531140000000     0.347260000000     0.400508   
C39      C      0.115430000000     0.569630000000     0.359860000000     0.439523   
C40      C      0.480890000000     0.880140000000     0.330970000000     0.449387   
C41      C      0.311430000000     0.735030000000     0.512680000000     0.541107   
C42      C      0.284880000000     0.721960000000     0.158310000000     0.538853   
C43      C      0.398520000000     0.683890000000     0.590690000000     0.513386   
C44      C      0.232700000000     0.809990000000     0.080630000000     0.514207   
C45      C      0.307980000000     0.738310000000     0.263050000000     0.512809   
C46      C      0.290620000000     0.709710000000     0.408660000000     0.525743   
C47      C      0.358700000000     0.640480000000     0.324840000000     0.493201   
C48      C      0.251310000000     0.815200000000     0.336300000000     0.483469   
C49      C      0.482980000000     0.562290000000     0.584300000000     0.400013   
C50      C      0.121690000000     0.898150000000     0.605050000000     0.398267   
C51      C      0.460310000000     0.913880000000     0.614620000000     0.44632    
C52      C      0.143270000000     0.550040000000     0.568040000000     0.444496   
C53      C      0.148660000000     0.918250000000     0.857240000000     0.399605   
C54      C      0.462470000000     0.540680000000     0.845300000000     0.400089   
C55      C      0.124100000000     0.584990000000     0.858700000000     0.441211   
C56      C      0.489860000000     0.897420000000     0.836070000000     0.450168   
C57      C      0.315690000000     0.737910000000     0.012760000000     0.542382   
C58      C      0.295590000000     0.727160000000     0.659530000000     0.538749   
C59      C      0.357450000000     0.646150000000     0.084390000000     0.503814   
C60      C      0.208030000000     0.780360000000     0.585750000000     0.506001   
C61      C      0.321240000000     0.748650000000     0.763420000000     0.54142    
C62      C      0.301420000000     0.716490000000     0.908200000000     0.551852   
C63      C      0.369760000000     0.649950000000     0.823900000000     0.515795   
C64      C      0.264930000000     0.826290000000     0.837610000000     0.50705    
C65      C      0.979010000000     0.067170000000     0.092000000000     0.405087   
C66      C      0.628480000000     0.404400000000     0.112690000000     0.4063     
C67      C      0.970160000000     0.410900000000     0.140620000000     0.440881   
C68      C      0.640160000000     0.068680000000     0.076990000000     0.44605    
C69      C      0.635580000000     0.413160000000     0.366300000000     0.399808   
C70      C      0.952430000000     0.030320000000     0.353900000000     0.399789   
C71      C      0.619570000000     0.061540000000     0.373080000000     0.436439   
C72      C      0.982960000000     0.375870000000     0.345000000000     0.45243    
C73      C      0.814650000000     0.239340000000     0.536950000000     0.539457   
C74      C      0.789660000000     0.223240000000     0.183040000000     0.55268    
C75      C      0.902320000000     0.186560000000     0.610730000000     0.506206   
C76      C      0.711810000000     0.283500000000     0.102430000000     0.530139   
C77      C      0.809270000000     0.241430000000     0.287720000000     0.508524   
C78      C      0.791410000000     0.213900000000     0.433190000000     0.52602    
C79      C      0.863390000000     0.147130000000     0.346530000000     0.48988    
C80      C      0.751230000000     0.318090000000     0.356930000000     0.478464   
C81      C      0.988590000000     0.068600000000     0.591820000000     0.398392   
C82      C      0.627540000000     0.404960000000     0.611850000000     0.399959   
C83      C      0.967140000000     0.416880000000     0.628600000000     0.444659   
C84      C      0.650020000000     0.052780000000     0.581910000000     0.445922   
C85      C      0.649860000000     0.426380000000     0.865120000000     0.400063   
C86      C      0.968220000000     0.044330000000     0.855870000000     0.399782   
C87      C      0.633440000000     0.077020000000     0.875380000000     0.43624    
C88      C      0.994030000000     0.390540000000     0.843560000000     0.453544   
C89      C      0.824730000000     0.252820000000     0.038730000000     0.539485   
C90      C      0.799870000000     0.231610000000     0.683950000000     0.540369   
C91      C      0.900520000000     0.188490000000     0.111540000000     0.532742   
C92      C      0.711980000000     0.283250000000     0.605840000000     0.512975   
C93      C      0.823890000000     0.254690000000     0.788010000000     0.506766   
C94      C      0.806980000000     0.229980000000     0.934050000000     0.52285    
C95      C      0.878340000000     0.160610000000     0.847680000000     0.488797   
C96      C      0.766660000000     0.332250000000     0.856750000000     0.477405   
C97      C      0.978590000000     0.560340000000     0.104570000000     0.399608   
C98      C      0.637680000000     0.920070000000     0.101660000000     0.400005   
C99      C      0.969930000000     0.908650000000     0.114630000000     0.431678   
C100     C      0.634020000000     0.551590000000     0.071950000000     0.438675   
C101     C      0.636790000000     0.905060000000     0.354960000000     0.399614   
C102     C      0.951920000000     0.527900000000     0.344620000000     0.399471   
C103     C      0.615890000000     0.571780000000     0.359280000000     0.440949   
C104     C      0.979370000000     0.881850000000     0.328880000000     0.449921   
C105     C      0.812880000000     0.734550000000     0.510540000000     0.541405   
C106     C      0.785300000000     0.721260000000     0.156190000000     0.538589   
C107     C      0.898530000000     0.683610000000     0.589300000000     0.513018   
C108     C      0.732050000000     0.809560000000     0.079180000000     0.513207   
C109     C      0.809820000000     0.737080000000     0.260800000000     0.513753   
C110     C      0.793890000000     0.708570000000     0.406440000000     0.523658   
C111     C      0.861810000000     0.639520000000     0.322720000000     0.490828   
C112     C      0.753890000000     0.814330000000     0.334400000000     0.482184   
C113     C      0.983090000000     0.561980000000     0.583820000000     0.40057    
C114     C      0.622360000000     0.898380000000     0.603670000000     0.39805    
C115     C      0.959440000000     0.914350000000     0.613410000000     0.446783   
C116     C      0.642690000000     0.550170000000     0.566940000000     0.444007   
C117     C      0.646410000000     0.919630000000     0.857890000000     0.399391   
C118     C      0.960920000000     0.542400000000     0.842840000000     0.400398   
C119     C      0.626360000000     0.584400000000     0.857750000000     0.440541   
C120     C      0.992850000000     0.895430000000     0.831580000000     0.448438   
C121     C      0.815600000000     0.738800000000     0.010710000000     0.542486   
C122     C      0.795540000000     0.727960000000     0.657430000000     0.538156   
C123     C      0.857600000000     0.646170000000     0.082220000000     0.502937   
C124     C      0.708440000000     0.780620000000     0.583480000000     0.50623    
C125     C      0.819980000000     0.751660000000     0.761270000000     0.516272   
C126     C      0.801680000000     0.718520000000     0.906030000000     0.527601   
C127     C      0.871980000000     0.655120000000     0.822110000000     0.490952   
C128     C      0.762070000000     0.828140000000     0.835740000000     0.483493   
Cu1      Cu     0.044500000000     0.462730000000     0.565850000000     0.861176   
Cu2      Cu     0.562450000000     0.002210000000     0.131890000000     0.853358   
Cu3      Cu     0.558270000000     0.982130000000     0.319170000000     0.844312   
Cu4      Cu     0.037700000000     0.471920000000     0.389020000000     0.871791   
Cu5      Cu     0.342490000000     0.286950000000     0.121990000000     1.66718    
Cu6      Cu     0.271840000000     0.185600000000     0.607640000000     1.94867    
Cu7      Cu     0.354170000000     0.260080000000     0.367070000000     2.17291    
Cu8      Cu     0.249930000000     0.189330000000     0.359070000000     1.59583    
Cu9      Cu     0.036620000000     0.463050000000     0.075660000000     0.846894   
Cu10     Cu     0.561730000000     0.993330000000     0.633250000000     0.861652   
Cu11     Cu     0.569050000000     0.997950000000     0.822610000000     0.848333   
Cu12     Cu     0.046710000000     0.487200000000     0.887680000000     0.874089   
Cu13     Cu     0.342000000000     0.284700000000     0.617750000000     1.74257    
Cu14     Cu     0.270910000000     0.188400000000     0.104710000000     2.15098    
Cu15     Cu     0.366230000000     0.279630000000     0.867540000000     1.25777    
Cu16     Cu     0.262980000000     0.206740000000     0.859980000000     1.87987    
Cu17     Cu     0.049850000000     0.973460000000     0.563350000000     0.859454   
Cu18     Cu     0.571040000000     0.499890000000     0.139560000000     0.869959   
Cu19     Cu     0.554750000000     0.475560000000     0.319600000000     0.851993   
Cu20     Cu     0.034880000000     0.959070000000     0.387520000000     0.865002   
Cu21     Cu     0.346630000000     0.769290000000     0.093540000000     1.65014    
Cu22     Cu     0.268400000000     0.682210000000     0.580720000000     1.77523    
Cu23     Cu     0.353300000000     0.759500000000     0.339850000000     1.27695    
Cu24     Cu     0.248070000000     0.689180000000     0.332610000000     1.93326    
Cu25     Cu     0.048110000000     0.979430000000     0.062260000000     0.859175   
Cu26     Cu     0.566780000000     0.504360000000     0.630460000000     0.862592   
Cu27     Cu     0.567840000000     0.486950000000     0.817950000000     0.847167   
Cu28     Cu     0.050630000000     0.972850000000     0.889380000000     0.863578   
Cu29     Cu     0.338320000000     0.781250000000     0.591490000000     1.91955    
Cu30     Cu     0.248290000000     0.692400000000     0.076770000000     2.02031    
Cu31     Cu     0.365490000000     0.768760000000     0.840550000000     2.04583    
Cu32     Cu     0.259950000000     0.700200000000     0.832230000000     1.73353    
Cu33     Cu     0.543740000000     0.462890000000     0.565630000000     0.86012    
Cu34     Cu     0.061580000000     0.001940000000     0.131890000000     0.853917   
Cu35     Cu     0.057480000000     0.983800000000     0.319050000000     0.847481   
Cu36     Cu     0.538300000000     0.475560000000     0.390520000000     0.872231   
Cu37     Cu     0.842340000000     0.286880000000     0.119690000000     1.68974    
Cu38     Cu     0.772030000000     0.185630000000     0.605180000000     1.92505    
Cu39     Cu     0.853420000000     0.264370000000     0.364800000000     1.2781     
Cu40     Cu     0.750220000000     0.191520000000     0.356970000000     1.87044    
Cu41     Cu     0.535780000000     0.462820000000     0.075610000000     0.846103   
Cu42     Cu     0.060430000000     0.993290000000     0.633610000000     0.861999   
Cu43     Cu     0.072400000000     0.996640000000     0.820670000000     0.843317   
Cu44     Cu     0.550770000000     0.486790000000     0.888790000000     0.875618   
Cu45     Cu     0.841900000000     0.284850000000     0.615730000000     1.76814    
Cu46     Cu     0.770960000000     0.188220000000     0.102480000000     2.12725    
Cu47     Cu     0.868720000000     0.278410000000     0.865030000000     1.24811    
Cu48     Cu     0.765750000000     0.205650000000     0.857800000000     1.88693    
Cu49     Cu     0.548610000000     0.973260000000     0.563170000000     0.858657   
Cu50     Cu     0.069760000000     0.499970000000     0.140070000000     0.870563   
Cu51     Cu     0.057460000000     0.473430000000     0.318480000000     0.846126   
Cu52     Cu     0.538720000000     0.958500000000     0.388150000000     0.865903   
Cu53     Cu     0.846340000000     0.769310000000     0.091520000000     1.67551    
Cu54     Cu     0.768570000000     0.682250000000     0.578620000000     1.7474     
Cu55     Cu     0.855910000000     0.758720000000     0.337440000000     1.26438    
Cu56     Cu     0.751050000000     0.688210000000     0.330530000000     1.9391     
Cu57     Cu     0.547120000000     0.979250000000     0.062460000000     0.858708   
Cu58     Cu     0.065980000000     0.504190000000     0.630860000000     0.862941   
Cu59     Cu     0.067090000000     0.488650000000     0.817210000000     0.850434   
Cu60     Cu     0.550740000000     0.975650000000     0.891920000000     0.863346   
Cu61     Cu     0.838710000000     0.781240000000     0.589260000000     1.94722    
Cu62     Cu     0.748290000000     0.692040000000     0.074580000000     1.98245    
Cu63     Cu     0.864250000000     0.773440000000     0.838350000000     1.25506    
Cu64     Cu     0.760160000000     0.702170000000     0.830280000000     1.97381    
H1       H      0.254730000000     0.174590000000     0.485390000000     0.124923   
H2       H      0.350840000000     0.276290000000     0.489240000000     0.124145   
H3       H      0.349700000000     0.277260000000     0.241810000000     0.128606   
H4       H      0.246880000000     0.182440000000     0.232760000000     0.12597    
H5       H      0.247990000000     0.397270000000     0.340150000000     0.121531   
H6       H      0.165710000000     0.349480000000     0.400710000000     0.111829   
H7       H      0.455470000000     0.304010000000     0.320000000000     0.124887   
H8       H      0.397880000000     0.280580000000     0.374770000000    -0.706651   
H9       H      0.433340000000     0.119920000000     0.318720000000     0.121012   
H10      H      0.376950000000     0.047040000000     0.382140000000     0.111784   
H11      H      0.153250000000     0.125140000000     0.411730000000     0.122273   
H12      H      0.205000000000     0.165110000000     0.357100000000    -0.471884   
H13      H      0.198950000000     0.376660000000     0.141520000000     0.11906    
H14      H      0.127060000000     0.295670000000     0.589060000000     0.119779   
H15      H      0.367460000000     0.328880000000     0.129770000000    -0.473444   
H16      H      0.410930000000     0.378180000000     0.671760000000     0.122212   
H17      H      0.489170000000     0.173360000000     0.626360000000     0.117565   
H18      H      0.414780000000     0.105300000000     0.064550000000     0.117595   
H19      H      0.248310000000     0.146630000000     0.099560000000    -0.692403   
H20      H      0.215970000000     0.100980000000     0.550990000000     0.124341   
H21      H      0.265580000000     0.194050000000     0.985420000000     0.125947   
H22      H      0.362470000000     0.294760000000     0.992510000000     0.12365    
H23      H      0.360480000000     0.292980000000     0.740790000000     0.125763   
H24      H      0.260920000000     0.194620000000     0.735630000000     0.125938   
H25      H      0.257090000000     0.413460000000     0.838570000000     0.120254   
H26      H      0.176430000000     0.366500000000     0.900280000000     0.113425   
H27      H      0.469010000000     0.313860000000     0.818350000000     0.121415   
H28      H      0.407540000000     0.318960000000     0.880600000000    -0.186807   
H29      H      0.449050000000     0.139180000000     0.822630000000     0.119107   
H30      H      0.390850000000     0.067390000000     0.886020000000     0.113316   
H31      H      0.169320000000     0.138880000000     0.912360000000     0.1219     
H32      H      0.218700000000     0.181130000000     0.857790000000    -0.573505   
H33      H      0.192010000000     0.375130000000     0.646360000000     0.118235   
H34      H      0.126850000000     0.297220000000     0.086700000000     0.1222     
H35      H      0.366800000000     0.327170000000     0.619530000000    -0.520362   
H36      H      0.422110000000     0.369690000000     0.186510000000     0.1172     
H37      H      0.487740000000     0.173450000000     0.123920000000     0.119212   
H38      H      0.425790000000     0.107020000000     0.562880000000     0.115649   
H39      H      0.248020000000     0.143480000000     0.607240000000    -0.618182   
H40      H      0.200470000000     0.117620000000     0.041890000000     0.120961   
H41      H      0.253020000000     0.672470000000     0.458220000000     0.126318   
H42      H      0.350440000000     0.772780000000     0.463330000000     0.125575   
H43      H      0.347840000000     0.775290000000     0.214370000000     0.125506   
H44      H      0.239250000000     0.686270000000     0.206430000000     0.123754   
H45      H      0.243850000000     0.898820000000     0.324070000000     0.119661   
H46      H      0.162770000000     0.836530000000     0.380950000000     0.114806   
H47      H      0.449810000000     0.819000000000     0.290760000000     0.120526   
H48      H      0.395410000000     0.794900000000     0.354750000000    -0.205441   
H49      H      0.430140000000     0.611350000000     0.299030000000     0.118412   
H50      H      0.373820000000     0.555630000000     0.369500000000     0.113185   
H51      H      0.146710000000     0.645380000000     0.386190000000     0.121072   
H52      H      0.203000000000     0.666080000000     0.329370000000    -0.599946   
H53      H      0.205340000000     0.887010000000     0.131810000000     0.113977   
H54      H      0.121340000000     0.793300000000     0.571140000000     0.117648   
H55      H      0.387560000000     0.799950000000     0.098810000000    -0.475191   
H56      H      0.396710000000     0.865160000000     0.648400000000     0.124721   
H57      H      0.483990000000     0.671610000000     0.608550000000     0.119964   
H58      H      0.452730000000     0.633420000000     0.126800000000     0.11704    
H59      H      0.206320000000     0.664610000000     0.072880000000    -0.627751   
H60      H      0.201230000000     0.588740000000     0.525900000000     0.121394   
H61      H      0.262730000000     0.676460000000     0.956300000000     0.128819   
H62      H      0.360780000000     0.775600000000     0.965260000000     0.124082   
H63      H      0.360040000000     0.784910000000     0.713850000000     0.127768   
H64      H      0.257570000000     0.689040000000     0.708940000000     0.125559   
H65      H      0.258670000000     0.910320000000     0.825900000000     0.120999   
H66      H      0.176520000000     0.848400000000     0.882270000000     0.113601   
H67      H      0.458810000000     0.836210000000     0.796320000000     0.125277   
H68      H      0.409430000000     0.789260000000     0.847920000000    -0.658447   
H69      H      0.440450000000     0.620770000000     0.797240000000     0.119959   
H70      H      0.384630000000     0.563950000000     0.867470000000     0.112345   
H71      H      0.155990000000     0.660910000000     0.884770000000     0.120825   
H72      H      0.214420000000     0.678640000000     0.828540000000    -0.52782    
H73      H      0.182600000000     0.858800000000     0.635730000000     0.116558   
H74      H      0.161920000000     0.840350000000     0.054690000000     0.123168   
H75      H      0.361870000000     0.823540000000     0.592340000000    -0.60548    
H76      H      0.411630000000     0.856030000000     0.150870000000     0.120749   
H77      H      0.373170000000     0.565440000000     0.069860000000     0.121598   
H78      H      0.417910000000     0.592450000000     0.551520000000     0.117538   
H79      H      0.243880000000     0.639720000000     0.578730000000    -0.53313    
H80      H      0.180010000000     0.592410000000     0.026770000000     0.119674   
H81      H      0.755510000000     0.176000000000     0.483030000000     0.125274   
H82      H      0.851370000000     0.277840000000     0.487250000000     0.125312   
H83      H      0.848430000000     0.279700000000     0.239320000000     0.125887   
H84      H      0.747120000000     0.183250000000     0.230810000000     0.125928   
H85      H      0.744130000000     0.398360000000     0.337080000000     0.119654   
H86      H      0.666040000000     0.352120000000     0.400250000000     0.111886   
H87      H      0.955980000000     0.301410000000     0.315760000000     0.121053   
H88      H      0.894410000000     0.303640000000     0.378170000000    -0.192415   
H89      H      0.938130000000     0.125520000000     0.319780000000     0.11954    
H90      H      0.874060000000     0.049010000000     0.378650000000     0.114538   
H91      H      0.656060000000     0.125600000000     0.409630000000     0.122053   
H92      H      0.705760000000     0.166380000000     0.354750000000    -0.571845   
H93      H      0.699620000000     0.376200000000     0.139370000000     0.119143   
H94      H      0.626740000000     0.295650000000     0.587570000000     0.119575   
H95      H      0.867050000000     0.328870000000     0.127390000000    -0.482404   
H96      H      0.908970000000     0.378260000000     0.670660000000     0.122383   
H97      H      0.989170000000     0.173900000000     0.625160000000     0.11792    
H98      H      0.915660000000     0.105350000000     0.063040000000     0.117659   
H99      H      0.748370000000     0.146420000000     0.097310000000    -0.683      
H100     H      0.713650000000     0.101760000000     0.548290000000     0.124058   
H101     H      0.769460000000     0.191860000000     0.982990000000     0.125833   
H102     H      0.864630000000     0.293860000000     0.990410000000     0.123656   
H103     H      0.861150000000     0.291990000000     0.738360000000     0.125937   
H104     H      0.761740000000     0.193420000000     0.733400000000     0.12604    
H105     H      0.759400000000     0.412430000000     0.836640000000     0.119737   
H106     H      0.680720000000     0.366010000000     0.899450000000     0.113284   
H107     H      0.970770000000     0.315140000000     0.814640000000     0.121721   
H108     H      0.910350000000     0.317130000000     0.878490000000    -0.183928   
H109     H      0.952680000000     0.138570000000     0.820660000000     0.119133   
H110     H      0.890430000000     0.063680000000     0.881080000000     0.114458   
H111     H      0.672370000000     0.140930000000     0.911200000000     0.122089   
H112     H      0.721260000000     0.180520000000     0.855930000000    -0.577799   
H113     H      0.692480000000     0.374850000000     0.644750000000     0.118385   
H114     H      0.626380000000     0.296850000000     0.084970000000     0.122114   
H115     H      0.866400000000     0.327360000000     0.617730000000    -0.530551   
H116     H      0.919090000000     0.369830000000     0.184950000000     0.117699   
H117     H      0.987540000000     0.173430000000     0.122860000000     0.119537   
H118     H      0.927530000000     0.107670000000     0.561090000000     0.116017   
H119     H      0.748210000000     0.143440000000     0.604370000000    -0.607347   
H120     H      0.698870000000     0.117270000000     0.040090000000     0.120698   
H121     H      0.756420000000     0.670900000000     0.455900000000     0.126259   
H122     H      0.852880000000     0.771910000000     0.461340000000     0.125556   
H123     H      0.848880000000     0.774360000000     0.212000000000     0.125614   
H124     H      0.740560000000     0.684870000000     0.204430000000     0.123745   
H125     H      0.745950000000     0.897840000000     0.322100000000     0.119181   
H126     H      0.666200000000     0.835810000000     0.379780000000     0.114658   
H127     H      0.950940000000     0.821240000000     0.287740000000     0.120756   
H128     H      0.898260000000     0.793710000000     0.352630000000    -0.200785   
H129     H      0.934780000000     0.611270000000     0.298080000000     0.118324   
H130     H      0.873330000000     0.551370000000     0.365460000000     0.114385   
H131     H      0.650210000000     0.647550000000     0.384460000000     0.121022   
H132     H      0.705890000000     0.665420000000     0.327440000000    -0.603797   
H133     H      0.705940000000     0.887020000000     0.130480000000     0.114335   
H134     H      0.621550000000     0.793650000000     0.569420000000     0.117636   
H135     H      0.887170000000     0.800010000000     0.096780000000    -0.485049   
H136     H      0.894500000000     0.865760000000     0.646220000000     0.125008   
H137     H      0.983690000000     0.671330000000     0.607750000000     0.120291   
H138     H      0.951880000000     0.633480000000     0.125530000000     0.117181   
H139     H      0.706400000000     0.663900000000     0.070540000000    -0.610267   
H140     H      0.699490000000     0.588990000000     0.524230000000     0.121273   
H141     H      0.764060000000     0.677150000000     0.953940000000     0.12921    
H142     H      0.860460000000     0.777480000000     0.963430000000     0.125407   
H143     H      0.857820000000     0.788250000000     0.711540000000     0.125507   
H144     H      0.757440000000     0.690330000000     0.707010000000     0.125572   
H145     H      0.753700000000     0.911470000000     0.823570000000     0.119558   
H146     H      0.675830000000     0.850110000000     0.882480000000     0.113539   
H147     H      0.960780000000     0.835340000000     0.790890000000     0.120843   
H148     H      0.905230000000     0.809370000000     0.853650000000    -0.203221   
H149     H      0.946270000000     0.628240000000     0.798180000000     0.118597   
H150     H      0.881440000000     0.564710000000     0.862910000000     0.115345   
H151     H      0.658210000000     0.660800000000     0.883040000000     0.119851   
H152     H      0.715130000000     0.679310000000     0.826470000000    -0.61488    
H153     H      0.684360000000     0.859320000000     0.633470000000     0.116602   
H154     H      0.660370000000     0.839560000000     0.054020000000     0.122877   
H155     H      0.862270000000     0.823460000000     0.589910000000    -0.617296   
H156     H      0.910410000000     0.855660000000     0.149050000000     0.121011   
H157     H      0.873790000000     0.565540000000     0.067840000000     0.121551   
H158     H      0.918560000000     0.592010000000     0.550460000000     0.117675   
H159     H      0.743760000000     0.639800000000     0.576620000000    -0.521776   
H160     H      0.678880000000     0.591070000000     0.024950000000     0.119156   
N1       N      0.286180000000     0.206520000000     0.474450000000    -0.201625   
N2       N      0.320460000000     0.243450000000     0.500120000000    -0.197012   
N3       N      0.315570000000     0.246620000000     0.251220000000    -0.197165   
N4       N      0.280050000000     0.214210000000     0.223720000000    -0.200929   
N5       N      0.224240000000     0.362050000000     0.353340000000    -0.189332   
N6       N      0.172310000000     0.370080000000     0.374050000000    -0.167669   
N7       N      0.455970000000     0.326160000000     0.346080000000    -0.219324   
N8       N      0.436440000000     0.299220000000     0.380170000000     0.115262   
N9       N      0.397110000000     0.103860000000     0.336000000000    -0.192154   
N10      N      0.404540000000     0.055820000000     0.358000000000    -0.168828   
N11      N      0.149580000000     0.111050000000     0.383080000000    -0.200843   
N12      N      0.165470000000     0.147830000000     0.352110000000     0.0500681  
N13      N      0.168180000000     0.367510000000     0.119050000000    -0.170366   
N14      N      0.165880000000     0.314760000000     0.100640000000    -0.196009   
N15      N      0.374590000000     0.368600000000     0.133450000000     0.0407981  
N16      N      0.425340000000     0.377210000000     0.156710000000    -0.197194   
N17      N      0.449840000000     0.156320000000     0.612550000000    -0.190289   
N18      N      0.450680000000     0.108480000000     0.588470000000    -0.166861   
N19      N      0.230630000000     0.106150000000     0.612330000000     0.087672   
N20      N      0.200400000000     0.088160000000     0.578510000000    -0.207225   
N21      N      0.297820000000     0.225990000000     0.975360000000    -0.195092   
N22      N      0.331660000000     0.261430000000     0.002210000000    -0.19756    
N23      N      0.327530000000     0.262100000000     0.751370000000    -0.190235   
N24      N      0.292390000000     0.226890000000     0.725160000000    -0.19785    
N25      N      0.233930000000     0.378410000000     0.852310000000    -0.184082   
N26      N      0.182460000000     0.386630000000     0.873430000000    -0.16798    
N27      N      0.470810000000     0.336160000000     0.844380000000    -0.198866   
N28      N      0.448600000000     0.310540000000     0.878350000000    -0.0763551  
N29      N      0.412260000000     0.123410000000     0.839520000000    -0.186436   
N30      N      0.418450000000     0.075330000000     0.861800000000    -0.169061   
N31      N      0.165410000000     0.124910000000     0.883700000000    -0.203765   
N32      N      0.179800000000     0.162230000000     0.852790000000     0.0740561  
N33      N      0.165360000000     0.366770000000     0.621750000000    -0.168301   
N34      N      0.165370000000     0.313860000000     0.603510000000    -0.192244   
N35      N      0.378270000000     0.365870000000     0.613980000000     0.0558951  
N36      N      0.420290000000     0.383710000000     0.642240000000    -0.20048    
N37      N      0.446810000000     0.157460000000     0.111660000000    -0.195782   
N38      N      0.442390000000     0.107820000000     0.088950000000    -0.167993   
N39      N      0.233090000000     0.108010000000     0.098870000000     0.107149   
N40      N      0.190060000000     0.103330000000     0.069990000000    -0.208612   
N41      N      0.285270000000     0.704000000000     0.447650000000    -0.195533   
N42      N      0.319260000000     0.740260000000     0.473790000000    -0.198865   
N43      N      0.313060000000     0.745620000000     0.224160000000    -0.192116   
N44      N      0.275170000000     0.714900000000     0.196990000000    -0.197367   
N45      N      0.221530000000     0.861340000000     0.335130000000    -0.18573    
N46      N      0.169670000000     0.864000000000     0.357390000000    -0.167967   
N47      N      0.453550000000     0.830120000000     0.320000000000    -0.197345   
N48      N      0.436710000000     0.790740000000     0.348650000000    -0.0672545  
N49      N      0.393740000000     0.599480000000     0.317230000000    -0.186973   
N50      N      0.401150000000     0.557800000000     0.344960000000    -0.169187   
N51      N      0.145250000000     0.621680000000     0.360760000000    -0.206849   
N52      N      0.164080000000     0.646720000000     0.325360000000     0.0825783  
N53      N      0.182880000000     0.887520000000     0.105380000000    -0.169776   
N54      N      0.194250000000     0.848970000000     0.076280000000    -0.192818   
N55      N      0.425950000000     0.821020000000     0.095140000000     0.0435183  
N56      N      0.431140000000     0.862990000000     0.123540000000    -0.196505   
N57      N      0.445400000000     0.653480000000     0.594390000000    -0.192408   
N58      N      0.445040000000     0.600660000000     0.575930000000    -0.168258   
N59      N      0.232570000000     0.600910000000     0.583980000000     0.0591818  
N60      N      0.191120000000     0.583300000000     0.555330000000    -0.20089    
N61      N      0.294970000000     0.708890000000     0.946920000000    -0.201148   
N62      N      0.327520000000     0.743930000000     0.974350000000    -0.197444   
N63      N      0.326020000000     0.755140000000     0.724480000000    -0.197264   
N64      N      0.289150000000     0.721190000000     0.698440000000    -0.19716    
N65      N      0.235810000000     0.872910000000     0.836680000000    -0.190504   
N66      N      0.183820000000     0.875940000000     0.858770000000    -0.167672   
N67      N      0.461980000000     0.847510000000     0.825570000000    -0.215252   
N68      N      0.447900000000     0.807420000000     0.854180000000     0.101905   
N69      N      0.404240000000     0.608720000000     0.815560000000    -0.19122    
N70      N      0.412090000000     0.566720000000     0.842980000000    -0.16885    
N71      N      0.154390000000     0.636770000000     0.859540000000    -0.204383   
N72      N      0.175090000000     0.660550000000     0.824160000000     0.0665625  
N73      N      0.158640000000     0.857680000000     0.609780000000    -0.16702    
N74      N      0.160230000000     0.810140000000     0.585520000000    -0.190181   
N75      N      0.378480000000     0.861190000000     0.587480000000     0.0836607  
N76      N      0.410940000000     0.878200000000     0.620640000000    -0.206367   
N77      N      0.391310000000     0.602790000000     0.083300000000    -0.190425   
N78      N      0.444140000000     0.602960000000     0.105170000000    -0.169119   
N79      N      0.166190000000     0.647040000000     0.072660000000     0.0846128  
N80      N      0.168280000000     0.594740000000     0.055960000000    -0.203345   
N81      N      0.786720000000     0.208220000000     0.472190000000    -0.195631   
N82      N      0.821050000000     0.244850000000     0.498000000000    -0.198251   
N83      N      0.814890000000     0.248610000000     0.248910000000    -0.191211   
N84      N      0.780020000000     0.215160000000     0.221590000000    -0.20062    
N85      N      0.721300000000     0.363440000000     0.351150000000    -0.184326   
N86      N      0.671020000000     0.372170000000     0.373330000000    -0.168388   
N87      N      0.957550000000     0.322870000000     0.342110000000    -0.1987     
N88      N      0.935650000000     0.295900000000     0.375720000000    -0.0753636  
N89      N      0.900110000000     0.109030000000     0.335280000000    -0.186597   
N90      N      0.903610000000     0.058660000000     0.355590000000    -0.168888   
N91      N      0.651860000000     0.111190000000     0.381080000000    -0.204329   
N92      N      0.666750000000     0.147740000000     0.349820000000     0.0736919  
N93      N      0.668300000000     0.367060000000     0.117210000000    -0.170432   
N94      N      0.665630000000     0.314350000000     0.098680000000    -0.196263   
N95      N      0.873990000000     0.368600000000     0.130950000000     0.0431769  
N96      N      0.923600000000     0.377360000000     0.155210000000    -0.197678   
N97      N      0.950150000000     0.156820000000     0.611030000000    -0.19012    
N98      N      0.951570000000     0.109000000000     0.587020000000    -0.166838   
N99      N      0.731340000000     0.105890000000     0.609310000000     0.0844005  
N100     N      0.699300000000     0.088650000000     0.576010000000    -0.206265   
N101     N      0.801100000000     0.224380000000     0.973040000000    -0.194718   
N102     N      0.833770000000     0.260500000000     0.000020000000    -0.197543   
N103     N      0.828410000000     0.260980000000     0.749010000000    -0.190422   
N104     N      0.792970000000     0.225850000000     0.722900000000    -0.197686   
N105     N      0.736600000000     0.377470000000     0.850680000000    -0.18383    
N106     N      0.685840000000     0.385920000000     0.872480000000    -0.16792    
N107     N      0.971300000000     0.336770000000     0.840900000000    -0.199144   
N108     N      0.951340000000     0.309240000000     0.874710000000    -0.0770387  
N109     N      0.915040000000     0.122340000000     0.836630000000    -0.186165   
N110     N      0.919410000000     0.072740000000     0.857650000000    -0.16874    
N111     N      0.667170000000     0.126150000000     0.882780000000    -0.204214   
N112     N      0.682180000000     0.161940000000     0.851150000000     0.0755924  
N113     N      0.665440000000     0.366580000000     0.620300000000    -0.168254   
N114     N      0.665170000000     0.313720000000     0.601930000000    -0.192369   
N115     N      0.877800000000     0.366160000000     0.612530000000     0.0589089  
N116     N      0.919190000000     0.383690000000     0.641240000000    -0.200778   
N117     N      0.946780000000     0.157400000000     0.110390000000    -0.195639   
N118     N      0.942700000000     0.107770000000     0.087710000000    -0.168031   
N119     N      0.733370000000     0.107740000000     0.096550000000     0.104574   
N120     N      0.689320000000     0.103160000000     0.068340000000    -0.208316   
N121     N      0.788370000000     0.702780000000     0.445430000000    -0.19508    
N122     N      0.821540000000     0.739440000000     0.471690000000    -0.199007   
N123     N      0.814340000000     0.744500000000     0.221910000000    -0.192186   
N124     N      0.776140000000     0.713810000000     0.194880000000    -0.197192   
N125     N      0.723920000000     0.860400000000     0.333400000000    -0.185484   
N126     N      0.672520000000     0.863180000000     0.356140000000    -0.167813   
N127     N      0.953760000000     0.831580000000     0.317140000000    -0.197519   
N128     N      0.939290000000     0.790620000000     0.345120000000    -0.0687454  
N129     N      0.897240000000     0.598710000000     0.315160000000    -0.186492   
N130     N      0.902190000000     0.554800000000     0.341660000000    -0.168712   
N131     N      0.647350000000     0.623080000000     0.359350000000    -0.207357   
N132     N      0.666880000000     0.646250000000     0.323540000000     0.0840409  
N133     N      0.682780000000     0.887300000000     0.104300000000    -0.16971    
N134     N      0.693240000000     0.848330000000     0.075250000000    -0.192547   
N135     N      0.925480000000     0.821260000000     0.093230000000     0.0465287  
N136     N      0.930530000000     0.862810000000     0.121920000000    -0.196783   
N137     N      0.945300000000     0.653140000000     0.593400000000    -0.192178   
N138     N      0.945230000000     0.600270000000     0.575070000000    -0.16825    
N139     N      0.732460000000     0.601000000000     0.581930000000     0.0561879  
N140     N      0.690190000000     0.583490000000     0.553750000000    -0.20055    
N141     N      0.795600000000     0.710270000000     0.944710000000    -0.19577    
N142     N      0.827510000000     0.745400000000     0.972340000000    -0.198209   
N143     N      0.824620000000     0.757750000000     0.722280000000    -0.192105   
N144     N      0.788750000000     0.722600000000     0.696370000000    -0.196856   
N145     N      0.731940000000     0.874090000000     0.835130000000    -0.18586    
N146     N      0.681540000000     0.877290000000     0.858710000000    -0.168158   
N147     N      0.964470000000     0.845970000000     0.820210000000    -0.196713   
N148     N      0.947010000000     0.806160000000     0.848510000000    -0.0659543  
N149     N      0.907920000000     0.614840000000     0.814310000000    -0.186412   
N150     N      0.911200000000     0.569180000000     0.839600000000    -0.168792   
N151     N      0.656330000000     0.636370000000     0.857920000000    -0.207329   
N152     N      0.676260000000     0.659940000000     0.822310000000     0.0870116  
N153     N      0.659600000000     0.858040000000     0.607840000000    -0.167017   
N154     N      0.660690000000     0.810460000000     0.583520000000    -0.190364   
N155     N      0.879270000000     0.860960000000     0.584950000000     0.0870217  
N156     N      0.909890000000     0.878650000000     0.618670000000    -0.206956   
N157     N      0.891600000000     0.602900000000     0.081390000000    -0.190173   
N158     N      0.943860000000     0.603030000000     0.103850000000    -0.169046   
N159     N      0.666140000000     0.646580000000     0.070470000000     0.0790786  
N160     N      0.667830000000     0.593910000000     0.054230000000    -0.202142   
O1       O      0.497480000000     0.038030000000     0.563020000000    -0.382048   
O2       O      0.100500000000     0.404170000000     0.580060000000    -0.372785   
O3       O      0.478510000000     0.415510000000     0.592760000000    -0.410282   
O4       O      0.123830000000     0.027960000000     0.554690000000    -0.41035    
O5       O      0.128090000000     0.058420000000     0.113690000000    -0.407502   
O6       O      0.508180000000     0.441420000000     0.163190000000    -0.405055   
O7       O      0.127290000000     0.442730000000     0.139890000000    -0.396587   
O8       O      0.505650000000     0.061150000000     0.125000000000    -0.378114   
O9       O      0.127520000000     0.427380000000     0.331510000000    -0.362847   
O10      O      0.485730000000     0.028280000000     0.324290000000    -0.364929   
O11      O      0.111210000000     0.049010000000     0.338700000000    -0.408157   
O12      O      0.501270000000     0.403450000000     0.317380000000    -0.417904   
O13      O      0.487440000000     0.402430000000     0.381630000000    -0.411892   
O14      O      0.090360000000     0.030680000000     0.401060000000    -0.400584   
O15      O      0.468090000000     0.001930000000     0.385600000000    -0.391223   
O16      O      0.107760000000     0.428160000000     0.394800000000    -0.391296   
O17      O      0.344130000000     0.273650000000     0.561330000000    -0.571472   
O18      O      0.329090000000     0.261470000000     0.173980000000    -0.569698   
O19      O      0.408100000000     0.240000000000     0.123610000000    -0.518492   
O20      O      0.261940000000     0.307320000000     0.619770000000    -0.554132   
O21      O      0.205960000000     0.232350000000     0.095640000000    -0.579594   
O22      O      0.349230000000     0.165360000000     0.103880000000    -0.617294   
O23      O      0.259200000000     0.192180000000     0.160640000000    -0.623236   
O24      O      0.278420000000     0.198760000000     0.553260000000    -0.581767   
O25      O      0.346980000000     0.267600000000     0.311980000000    -0.604842   
O26      O      0.328830000000     0.249070000000     0.420570000000    -0.634094   
O27      O      0.385040000000     0.192740000000     0.351370000000    -0.617627   
O28      O      0.309770000000     0.322100000000     0.357900000000    -0.58023    
O29      O      0.224580000000     0.266930000000     0.363820000000    -0.516647   
O30      O      0.305200000000     0.130310000000     0.353230000000    -0.494309   
O31      O      0.257710000000     0.179180000000     0.413860000000    -0.567856   
O32      O      0.268730000000     0.203370000000     0.304090000000    -0.537741   
O33      O      0.485490000000     0.034830000000     0.063900000000    -0.383922   
O34      O      0.093980000000     0.403300000000     0.084140000000    -0.370948   
O35      O      0.473760000000     0.414140000000     0.104540000000    -0.405197   
O36      O      0.111150000000     0.043360000000     0.050420000000    -0.412994   
O37      O      0.132240000000     0.044160000000     0.618410000000    -0.414747   
O38      O      0.498730000000     0.451040000000     0.651920000000    -0.409377   
O39      O      0.120660000000     0.443310000000     0.637990000000    -0.384289   
O40      O      0.510520000000     0.058140000000     0.625790000000    -0.370039   
O41      O      0.137260000000     0.443060000000     0.830580000000    -0.363442   
O42      O      0.498170000000     0.045710000000     0.827960000000    -0.36657    
O43      O      0.126740000000     0.062220000000     0.839640000000    -0.407692   
O44      O      0.515880000000     0.413780000000     0.815530000000    -0.413189   
O45      O      0.501640000000     0.412830000000     0.879730000000    -0.399181   
O46      O      0.107040000000     0.044280000000     0.902180000000    -0.399577   
O47      O      0.481200000000     0.020670000000     0.889580000000    -0.391113   
O48      O      0.117330000000     0.444320000000     0.893850000000    -0.390889   
O49      O      0.352380000000     0.286470000000     0.065250000000    -0.548271   
O50      O      0.336380000000     0.271360000000     0.672300000000    -0.557512   
O51      O      0.407720000000     0.237690000000     0.622860000000    -0.517709   
O52      O      0.261780000000     0.307310000000     0.117450000000    -0.566089   
O53      O      0.207010000000     0.231650000000     0.598630000000    -0.545537   
O54      O      0.351120000000     0.161940000000     0.602850000000    -0.567328   
O55      O      0.269400000000     0.197810000000     0.663750000000    -0.601327   
O56      O      0.286810000000     0.212390000000     0.052590000000    -0.612469   
O57      O      0.358910000000     0.286360000000     0.811990000000    -0.477868   
O58      O      0.341760000000     0.268370000000     0.921550000000    -0.507645   
O59      O      0.398320000000     0.212680000000     0.852220000000    -0.507082   
O60      O      0.320240000000     0.340060000000     0.857390000000    -0.45807    
O61      O      0.235780000000     0.283700000000     0.863700000000    -0.52006    
O62      O      0.319830000000     0.148960000000     0.856190000000    -0.506417   
O63      O      0.269830000000     0.199190000000     0.914810000000    -0.586428   
O64      O      0.282390000000     0.219970000000     0.805090000000    -0.552623   
O65      O      0.489050000000     0.523930000000     0.559140000000    -0.384948   
O66      O      0.100390000000     0.908410000000     0.571620000000    -0.37099    
O67      O      0.477490000000     0.922090000000     0.579550000000    -0.413585   
O68      O      0.112880000000     0.516100000000     0.544970000000    -0.410645   
O69      O      0.128180000000     0.553670000000     0.110120000000    -0.402572   
O70      O      0.493150000000     0.940820000000     0.143110000000    -0.397117   
O71      O      0.121030000000     0.944570000000     0.132810000000    -0.384347   
O72      O      0.511830000000     0.555890000000     0.135090000000    -0.390947   
O73      O      0.125730000000     0.932700000000     0.324110000000    -0.363168   
O74      O      0.481590000000     0.520920000000     0.316940000000    -0.367291   
O75      O      0.109660000000     0.545050000000     0.327140000000    -0.410728   
O76      O      0.503410000000     0.913920000000     0.305020000000    -0.41379    
O77      O      0.487320000000     0.890720000000     0.367290000000    -0.394633   
O78      O      0.091010000000     0.547210000000     0.390680000000    -0.403017   
O79      O      0.466620000000     0.515710000000     0.380780000000    -0.392046   
O80      O      0.103590000000     0.913530000000     0.386070000000    -0.392566   
O81      O      0.341260000000     0.769670000000     0.535290000000    -0.597819   
O82      O      0.328570000000     0.755990000000     0.146630000000    -0.556253   
O83      O      0.379760000000     0.695600000000     0.094950000000    -0.51995    
O84      O      0.258700000000     0.804380000000     0.596280000000    -0.564221   
O85      O      0.217470000000     0.761870000000     0.066470000000    -0.600339   
O86      O      0.303130000000     0.637000000000     0.074220000000    -0.563627   
O87      O      0.250240000000     0.694350000000     0.134020000000    -0.599016   
O88      O      0.274800000000     0.695790000000     0.526380000000    -0.564077   
O89      O      0.345680000000     0.766900000000     0.284750000000    -0.494148   
O90      O      0.329330000000     0.746340000000     0.393860000000    -0.507071   
O91      O      0.383130000000     0.690800000000     0.325310000000    -0.507553   
O92      O      0.307540000000     0.821480000000     0.332610000000    -0.462097   
O93      O      0.223140000000     0.765780000000     0.340590000000    -0.534393   
O94      O      0.302500000000     0.629700000000     0.330280000000    -0.517621   
O95      O      0.255740000000     0.678590000000     0.387100000000    -0.588337   
O96      O      0.266900000000     0.703210000000     0.277580000000    -0.562022   
O97      O      0.480670000000     0.526490000000     0.076330000000    -0.367943   
O98      O      0.112980000000     0.927270000000     0.069380000000    -0.376033   
O99      O      0.486240000000     0.917240000000     0.080500000000    -0.404232   
O100     O      0.103510000000     0.515450000000     0.052310000000    -0.410015   
O101     O      0.131730000000     0.551640000000     0.604280000000    -0.410324   
O102     O      0.488420000000     0.938540000000     0.643120000000    -0.410421   
O103     O      0.111220000000     0.928200000000     0.634570000000    -0.381599   
O104     O      0.510650000000     0.563040000000     0.616920000000    -0.372913   
O105     O      0.140430000000     0.945170000000     0.825610000000    -0.362495   
O106     O      0.493450000000     0.530950000000     0.815050000000    -0.365802   
O107     O      0.118810000000     0.560220000000     0.826050000000    -0.4109     
O108     O      0.512330000000     0.930510000000     0.809690000000    -0.416797   
O109     O      0.497380000000     0.908370000000     0.872250000000    -0.406229   
O110     O      0.099210000000     0.562870000000     0.889460000000    -0.403441   
O111     O      0.478070000000     0.525360000000     0.878830000000    -0.391393   
O112     O      0.118690000000     0.926420000000     0.887660000000    -0.391959   
O113     O      0.344970000000     0.770540000000     0.036890000000    -0.563839   
O114     O      0.332070000000     0.766540000000     0.645760000000    -0.577603   
O115     O      0.403720000000     0.735640000000     0.599830000000    -0.541152   
O116     O      0.283480000000     0.820790000000     0.097080000000    -0.505498   
O117     O      0.202710000000     0.729040000000     0.575060000000    -0.520936   
O118     O      0.348540000000     0.659900000000     0.578990000000    -0.558936   
O119     O      0.264960000000     0.692860000000     0.637000000000    -0.576196   
O120     O      0.275160000000     0.700230000000     0.024350000000    -0.585449   
O121     O      0.359240000000     0.776890000000     0.785140000000    -0.590009   
O122     O      0.339740000000     0.754470000000     0.894370000000    -0.608692   
O123     O      0.394940000000     0.700010000000     0.825530000000    -0.596715   
O124     O      0.321100000000     0.831860000000     0.833980000000    -0.567121   
O125     O      0.236230000000     0.777060000000     0.841470000000    -0.536114   
O126     O      0.313300000000     0.639750000000     0.828650000000    -0.50757    
O127     O      0.267560000000     0.685770000000     0.885890000000    -0.585768   
O128     O      0.279720000000     0.714170000000     0.777900000000    -0.565553   
O129     O      0.999080000000     0.038500000000     0.562340000000    -0.381772   
O130     O      0.599920000000     0.404200000000     0.579200000000    -0.372872   
O131     O      0.978750000000     0.415270000000     0.592380000000    -0.410223   
O132     O      0.621990000000     0.028130000000     0.553360000000    -0.409931   
O133     O      0.628580000000     0.058540000000     0.112850000000    -0.406915   
O134     O      0.006250000000     0.441450000000     0.162910000000    -0.405801   
O135     O      0.628380000000     0.442520000000     0.138540000000    -0.396671   
O136     O      0.004910000000     0.060870000000     0.124430000000    -0.378424   
O137     O      0.624770000000     0.429200000000     0.331520000000    -0.364831   
O138     O      0.985660000000     0.030740000000     0.323280000000    -0.365588   
O139     O      0.612160000000     0.048300000000     0.337530000000    -0.409185   
O140     O      0.004560000000     0.400820000000     0.314690000000    -0.413435   
O141     O      0.988140000000     0.398470000000     0.378660000000    -0.398152   
O142     O      0.594440000000     0.030500000000     0.400310000000    -0.401112   
O143     O      0.964530000000     0.002780000000     0.383890000000    -0.390547   
O144     O      0.607960000000     0.431010000000     0.395170000000    -0.392392   
O145     O      0.844570000000     0.274410000000     0.559330000000    -0.574737   
O146     O      0.828960000000     0.261920000000     0.171690000000    -0.572636   
O147     O      0.907910000000     0.239970000000     0.121880000000    -0.520369   
O148     O      0.761800000000     0.307160000000     0.617870000000    -0.557785   
O149     O      0.705750000000     0.231940000000     0.093400000000    -0.577306   
O150     O      0.849290000000     0.165230000000     0.102050000000    -0.614535   
O151     O      0.759450000000     0.192190000000     0.158540000000    -0.61832    
O152     O      0.778980000000     0.199530000000     0.550900000000    -0.580115   
O153     O      0.845790000000     0.271190000000     0.309590000000    -0.485932   
O154     O      0.828620000000     0.251650000000     0.418350000000    -0.515259   
O155     O      0.885870000000     0.197860000000     0.349060000000    -0.509094   
O156     O      0.807590000000     0.324930000000     0.355060000000    -0.460786   
O157     O      0.723330000000     0.268570000000     0.361980000000    -0.519809   
O158     O      0.807310000000     0.133980000000     0.351970000000    -0.504139   
O159     O      0.757850000000     0.181480000000     0.411640000000    -0.582785   
O160     O      0.768910000000     0.205320000000     0.302010000000    -0.55098    
O161     O      0.986410000000     0.034920000000     0.063070000000    -0.383842   
O162     O      0.593160000000     0.402900000000     0.083280000000    -0.371025   
O163     O      0.973950000000     0.414200000000     0.103800000000    -0.406213   
O164     O      0.609860000000     0.043070000000     0.049820000000    -0.413203   
O165     O      0.632780000000     0.044470000000     0.616950000000    -0.413766   
O166     O      0.997530000000     0.450790000000     0.651700000000    -0.409235   
O167     O      0.621430000000     0.443330000000     0.636980000000    -0.38423    
O168     O      0.009850000000     0.058360000000     0.625290000000    -0.370389   
O169     O      0.638980000000     0.442010000000     0.830250000000    -0.363122   
O170     O      0.000830000000     0.044000000000     0.825010000000    -0.36572    
O171     O      0.624800000000     0.063420000000     0.839970000000    -0.409277   
O172     O      0.014860000000     0.415850000000     0.813210000000    -0.414573   
O173     O      0.998360000000     0.413300000000     0.877190000000    -0.398717   
O174     O      0.608300000000     0.046860000000     0.903030000000    -0.4004     
O175     O      0.980810000000     0.017310000000     0.885990000000    -0.390165   
O176     O      0.621590000000     0.443890000000     0.893820000000    -0.390849   
O177     O      0.853140000000     0.286160000000     0.063080000000    -0.551099   
O178     O      0.836310000000     0.270910000000     0.670120000000    -0.561422   
O179     O      0.907730000000     0.238070000000     0.621000000000    -0.519959   
O180     O      0.761650000000     0.306930000000     0.115020000000    -0.570723   
O181     O      0.706920000000     0.231570000000     0.596560000000    -0.542855   
O182     O      0.851550000000     0.162290000000     0.600610000000    -0.564334   
O183     O      0.769560000000     0.197190000000     0.661410000000    -0.597665   
O184     O      0.787650000000     0.212080000000     0.050310000000    -0.608649   
O185     O      0.860480000000     0.285090000000     0.809510000000    -0.47736    
O186     O      0.844440000000     0.267580000000     0.919220000000    -0.50401    
O187     O      0.900740000000     0.211400000000     0.849750000000    -0.5058     
O188     O      0.823060000000     0.339140000000     0.854990000000    -0.455936   
O189     O      0.738820000000     0.282760000000     0.862010000000    -0.520147   
O190     O      0.822310000000     0.147590000000     0.853270000000    -0.504971   
O191     O      0.773840000000     0.197230000000     0.912450000000    -0.587342   
O192     O      0.784140000000     0.218540000000     0.802850000000    -0.554605   
O193     O      0.989820000000     0.523670000000     0.558760000000    -0.384503   
O194     O      0.599820000000     0.908480000000     0.570570000000    -0.370745   
O195     O      0.977970000000     0.922580000000     0.578630000000    -0.414188   
O196     O      0.611720000000     0.516220000000     0.544140000000    -0.410485   
O197     O      0.628690000000     0.553510000000     0.108900000000    -0.401562   
O198     O      0.992090000000     0.940440000000     0.142280000000    -0.396882   
O199     O      0.621830000000     0.944760000000     0.132250000000    -0.384113   
O200     O      0.010610000000     0.555900000000     0.134720000000    -0.391348   
O201     O      0.627370000000     0.931700000000     0.323400000000    -0.362306   
O202     O      0.983980000000     0.518500000000     0.314810000000    -0.365416   
O203     O      0.607990000000     0.546780000000     0.326810000000    -0.412662   
O204     O      0.002500000000     0.916350000000     0.303540000000    -0.41477    
O205     O      0.984420000000     0.891680000000     0.365370000000    -0.394243   
O206     O      0.592550000000     0.550320000000     0.390680000000    -0.403691   
O207     O      0.965860000000     0.511510000000     0.378250000000    -0.389972   
O208     O      0.607490000000     0.913040000000     0.385700000000    -0.392169   
O209     O      0.842400000000     0.769300000000     0.533200000000    -0.601713   
O210     O      0.828580000000     0.755730000000     0.144500000000    -0.56038    
O211     O      0.879650000000     0.695670000000     0.092850000000    -0.521551   
O212     O      0.759240000000     0.804610000000     0.593780000000    -0.567797   
O213     O      0.716970000000     0.761500000000     0.064860000000    -0.595498   
O214     O      0.803370000000     0.636860000000     0.071850000000    -0.55858    
O215     O      0.750680000000     0.693550000000     0.131910000000    -0.593463   
O216     O      0.775860000000     0.695550000000     0.524180000000    -0.560269   
O217     O      0.847580000000     0.765840000000     0.282350000000    -0.493669   
O218     O      0.832170000000     0.745670000000     0.391640000000    -0.503026   
O219     O      0.885970000000     0.689940000000     0.323170000000    -0.504934   
O220     O      0.810050000000     0.820710000000     0.330330000000    -0.460146   
O221     O      0.726010000000     0.764820000000     0.338890000000    -0.533313   
O222     O      0.805560000000     0.628570000000     0.328050000000    -0.514948   
O223     O      0.759400000000     0.677100000000     0.384870000000    -0.588954   
O224     O      0.769110000000     0.701810000000     0.275470000000    -0.564339   
O225     O      0.981270000000     0.526560000000     0.075610000000    -0.36778    
O226     O      0.612100000000     0.927010000000     0.068950000000    -0.375836   
O227     O      0.986810000000     0.917270000000     0.079560000000    -0.403909   
O228     O      0.602230000000     0.515020000000     0.051450000000    -0.409472   
O229     O      0.632040000000     0.551740000000     0.603300000000    -0.409776   
O230     O      0.986550000000     0.938810000000     0.642350000000    -0.410217   
O231     O      0.612850000000     0.928500000000     0.633350000000    -0.38162    
O232     O      0.010040000000     0.562760000000     0.616700000000    -0.373214   
O233     O      0.636770000000     0.946200000000     0.826370000000    -0.364275   
O234     O      0.993490000000     0.533370000000     0.813210000000    -0.366054   
O235     O      0.619560000000     0.559180000000     0.825300000000    -0.410997   
O236     O      0.016680000000     0.929100000000     0.805930000000    -0.413277   
O237     O      0.998770000000     0.905640000000     0.867980000000    -0.393514   
O238     O      0.603250000000     0.562480000000     0.889090000000    -0.40408    
O239     O      0.974400000000     0.525880000000     0.876520000000    -0.39045    
O240     O      0.618220000000     0.928500000000     0.888950000000    -0.392304   
O241     O      0.844640000000     0.771290000000     0.034990000000    -0.567376   
O242     O      0.831970000000     0.767270000000     0.643550000000    -0.581088   
O243     O      0.903730000000     0.735420000000     0.598250000000    -0.544087   
O244     O      0.782920000000     0.820460000000     0.095490000000    -0.507068   
O245     O      0.702940000000     0.729220000000     0.572920000000    -0.518326   
O246     O      0.848650000000     0.659630000000     0.577390000000    -0.555028   
O247     O      0.765240000000     0.693240000000     0.634980000000    -0.571494   
O248     O      0.775290000000     0.700730000000     0.022120000000    -0.579908   
O249     O      0.857120000000     0.781230000000     0.782880000000    -0.487727   
O250     O      0.839070000000     0.757380000000     0.892240000000    -0.503075   
O251     O      0.895700000000     0.705700000000     0.823180000000    -0.502564   
O252     O      0.818110000000     0.834920000000     0.831350000000    -0.462153   
O253     O      0.734560000000     0.778430000000     0.840040000000    -0.537511   
O254     O      0.815720000000     0.643500000000     0.827220000000    -0.51527    
O255     O      0.768310000000     0.687460000000     0.883700000000    -0.600637   
O256     O      0.779550000000     0.716150000000     0.775900000000    -0.576428   


