data_structure

_audit_creation_method RASPA-1.0
_audit_creation_date 2023-6-4
_audit_author_name 'Poobodin Mano'

_cell_length_a    25.6919
_cell_length_b    26.3131
_cell_length_c    19.5514
_cell_angle_alpha 89.9989
_cell_angle_beta  89.9989
_cell_angle_gamma 96.947
_cell_volume      13120.4

_symmetry_cell_setting          triclinic
_symmetry_space_group_name_Hall 'P 1'
_symmetry_space_group_name_H-M  'P 1'
_symmetry_Int_Tables_number     1

_symmetry_equiv_pos_as_xyz 'x,y,z'

loop_
_atom_site_label
_atom_site_type_symbol
_atom_site_fract_x
_atom_site_fract_y
_atom_site_fract_z
_atom_site_charge
C1       C      0.093990000000     0.450900000000     0.047950000000     0.414124   
C2       C      0.482970000000     0.109640000000     0.043660000000     0.413827   
C3       C      0.123650000000     0.092060000000     0.074940000000     0.421052   
C4       C      0.450910000000     0.471970000000     0.007870000000     0.420968   
C5       C      0.129140000000     0.466290000000     0.526970000000     0.41502    
C6       C      0.466590000000     0.074320000000     0.525880000000     0.415158   
C7       C      0.109500000000     0.104680000000     0.498050000000     0.419722   
C8       C      0.489060000000     0.433900000000     0.564150000000     0.420432   
C9       C      0.311060000000     0.305590000000     0.910040000000     0.525811   
C10      C      0.291290000000     0.262030000000     0.161420000000     0.552534   
C11      C      0.386100000000     0.248200000000     0.021910000000     0.52815    
C12      C      0.215040000000     0.325810000000     0.022150000000     0.532802   
C13      C      0.280810000000     0.272630000000     0.409730000000     0.553265   
C14      C      0.323910000000     0.292710000000     0.661410000000     0.524933   
C15      C      0.344420000000     0.198400000000     0.551000000000     0.533204   
C16      C      0.267370000000     0.366430000000     0.548710000000     0.528831   
C17      C      0.302380000000     0.285480000000     0.785630000000     0.0884149  
C18      C      0.302060000000     0.281780000000     0.285660000000     0.0926176  
C19      C      0.200190000000     0.423530000000     0.582360000000     0.0828096  
C20      C      0.463880000000     0.342500000000     0.538720000000     0.0236159  
C21      C      0.418780000000     0.145610000000     0.568220000000     0.0830625  
C22      C      0.186680000000     0.165640000000     0.527050000000     0.0362311  
C23      C      0.163710000000     0.400320000000     0.004130000000     0.0823995  
C24      C      0.358950000000     0.441710000000     0.035460000000     0.021263   
C25      C      0.442570000000     0.181040000000     0.987690000000     0.0830874  
C26      C      0.181510000000     0.170170000000     0.045640000000     0.0379842  
C27      C      0.093990000000     0.950900000000     0.047960000000     0.413937   
C28      C      0.482980000000     0.609640000000     0.043660000000     0.41415    
C29      C      0.123650000000     0.592060000000     0.074960000000     0.421459   
C30      C      0.450910000000     0.971960000000     0.007870000000     0.420517   
C31      C      0.129140000000     0.966290000000     0.526980000000     0.414775   
C32      C      0.466580000000     0.574320000000     0.525880000000     0.415437   
C33      C      0.109500000000     0.604680000000     0.498050000000     0.419977   
C34      C      0.489060000000     0.933900000000     0.564160000000     0.42003    
C35      C      0.311050000000     0.805580000000     0.910050000000     0.525577   
C36      C      0.291300000000     0.762030000000     0.161430000000     0.55236    
C37      C      0.386100000000     0.748200000000     0.021920000000     0.527978   
C38      C      0.215040000000     0.825810000000     0.022160000000     0.533      
C39      C      0.280820000000     0.772630000000     0.409740000000     0.55335    
C40      C      0.323910000000     0.792710000000     0.661420000000     0.52472    
C41      C      0.344410000000     0.698400000000     0.551000000000     0.533293   
C42      C      0.267370000000     0.866430000000     0.548730000000     0.528878   
C43      C      0.302370000000     0.785470000000     0.785640000000     0.0884129  
C44      C      0.302070000000     0.781790000000     0.285670000000     0.0925761  
C45      C      0.200190000000     0.923530000000     0.582370000000     0.0828634  
C46      C      0.463880000000     0.842510000000     0.538740000000     0.0237061  
C47      C      0.418780000000     0.645610000000     0.568230000000     0.083078   
C48      C      0.186680000000     0.665640000000     0.527050000000     0.0361804  
C49      C      0.163700000000     0.900320000000     0.004140000000     0.082409   
C50      C      0.358950000000     0.941710000000     0.035460000000     0.0212711  
C51      C      0.442570000000     0.681040000000     0.987690000000     0.0830927  
C52      C      0.181510000000     0.670170000000     0.045660000000     0.0380804  
C53      C      0.593990000000     0.450900000000     0.047950000000     0.414351   
C54      C      0.982980000000     0.109640000000     0.043660000000     0.415257   
C55      C      0.623650000000     0.092060000000     0.074950000000     0.421292   
C56      C      0.950910000000     0.471970000000     0.007860000000     0.420673   
C57      C      0.629140000000     0.466290000000     0.526980000000     0.415079   
C58      C      0.966590000000     0.074320000000     0.525880000000     0.41508    
C59      C      0.609500000000     0.104680000000     0.498040000000     0.419881   
C60      C      0.989060000000     0.433900000000     0.564150000000     0.421709   
C61      C      0.811050000000     0.305590000000     0.910040000000     0.525512   
C62      C      0.791300000000     0.262030000000     0.161420000000     0.552307   
C63      C      0.886100000000     0.248200000000     0.021910000000     0.527989   
C64      C      0.715040000000     0.325810000000     0.022150000000     0.532785   
C65      C      0.780820000000     0.272630000000     0.409730000000     0.553311   
C66      C      0.823910000000     0.292700000000     0.661410000000     0.524706   
C67      C      0.844420000000     0.198400000000     0.550990000000     0.533185   
C68      C      0.767370000000     0.366430000000     0.548720000000     0.528736   
C69      C      0.802370000000     0.285470000000     0.785630000000     0.0884183  
C70      C      0.802070000000     0.281790000000     0.285660000000     0.0925652  
C71      C      0.700180000000     0.423530000000     0.582360000000     0.0828853  
C72      C      0.963880000000     0.342500000000     0.538730000000     0.0251288  
C73      C      0.918780000000     0.145610000000     0.568210000000     0.0830572  
C74      C      0.686680000000     0.165640000000     0.527040000000     0.036245   
C75      C      0.663700000000     0.400320000000     0.004130000000     0.0824645  
C76      C      0.858950000000     0.441710000000     0.035450000000     0.0213335  
C77      C      0.942570000000     0.181030000000     0.987680000000     0.0831547  
C78      C      0.681510000000     0.170170000000     0.045650000000     0.0380156  
C79      C      0.593990000000     0.950900000000     0.047960000000     0.414032   
C80      C      0.982980000000     0.609640000000     0.043670000000     0.415478   
C81      C      0.623650000000     0.592060000000     0.074950000000     0.421492   
C82      C      0.950910000000     0.971960000000     0.007880000000     0.42038    
C83      C      0.629140000000     0.966290000000     0.526970000000     0.414927   
C84      C      0.966580000000     0.574320000000     0.525880000000     0.415307   
C85      C      0.609500000000     0.604680000000     0.498060000000     0.420127   
C86      C      0.989060000000     0.933890000000     0.564150000000     0.421368   
C87      C      0.811060000000     0.805590000000     0.910050000000     0.52564    
C88      C      0.791300000000     0.762030000000     0.161430000000     0.552655   
C89      C      0.886110000000     0.748200000000     0.021920000000     0.5282     
C90      C      0.715040000000     0.825810000000     0.022160000000     0.532908   
C91      C      0.780820000000     0.772630000000     0.409740000000     0.553284   
C92      C      0.823910000000     0.792710000000     0.661420000000     0.524896   
C93      C      0.844420000000     0.698400000000     0.551010000000     0.533171   
C94      C      0.767370000000     0.866430000000     0.548720000000     0.528847   
C95      C      0.802370000000     0.785480000000     0.785640000000     0.0884154  
C96      C      0.802060000000     0.781780000000     0.285670000000     0.0926161  
C97      C      0.700190000000     0.923530000000     0.582360000000     0.0829022  
C98      C      0.963880000000     0.842500000000     0.538730000000     0.025118   
C99      C      0.918780000000     0.645610000000     0.568230000000     0.0831176  
C100     C      0.686670000000     0.665640000000     0.527070000000     0.0363032  
C101     C      0.663710000000     0.900320000000     0.004140000000     0.0824225  
C102     C      0.858950000000     0.941710000000     0.035470000000     0.0212191  
C103     C      0.942570000000     0.681040000000     0.987690000000     0.0831893  
C104     C      0.681510000000     0.670170000000     0.045650000000     0.0380828  
Cu1      Cu     0.548640000000     0.036870000000     0.981900000000     0.842085   
Cu2      Cu     0.027760000000     0.523280000000     0.104500000000     0.856872   
Cu3      Cu     0.540300000000     0.010090000000     0.467890000000     0.854518   
Cu4      Cu     0.054860000000     0.529780000000     0.590470000000     0.842837   
Cu5      Cu     0.325170000000     0.333680000000     0.054780000000     2.08919    
Cu6      Cu     0.273130000000     0.234920000000     0.017560000000     1.35094    
Cu7      Cu     0.354030000000     0.305400000000     0.516780000000     2.07648    
Cu8      Cu     0.251860000000     0.256270000000     0.553360000000     1.36713    
Cu9      Cu     0.548640000000     0.536870000000     0.981890000000     0.844894   
Cu10     Cu     0.027760000000     0.023280000000     0.104510000000     0.853817   
Cu11     Cu     0.540300000000     0.510090000000     0.467900000000     0.857473   
Cu12     Cu     0.054860000000     0.029780000000     0.590470000000     0.840113   
Cu13     Cu     0.325170000000     0.833670000000     0.054790000000     2.08958    
Cu14     Cu     0.273130000000     0.734920000000     0.017580000000     1.35066    
Cu15     Cu     0.354030000000     0.805400000000     0.516790000000     2.07567    
Cu16     Cu     0.251860000000     0.756270000000     0.553370000000     1.3671     
Cu17     Cu     0.048640000000     0.036870000000     0.981890000000     0.841274   
Cu18     Cu     0.527760000000     0.523280000000     0.104500000000     0.858845   
Cu19     Cu     0.040300000000     0.010090000000     0.467890000000     0.852579   
Cu20     Cu     0.554860000000     0.529780000000     0.590480000000     0.843751   
Cu21     Cu     0.825170000000     0.333670000000     0.054780000000     2.08752    
Cu22     Cu     0.773130000000     0.234920000000     0.017570000000     1.35105    
Cu23     Cu     0.854030000000     0.305400000000     0.516780000000     2.07561    
Cu24     Cu     0.751860000000     0.256270000000     0.553360000000     1.36707    
Cu25     Cu     0.048650000000     0.536870000000     0.981890000000     0.843898   
Cu26     Cu     0.527760000000     0.023280000000     0.104510000000     0.855883   
Cu27     Cu     0.040290000000     0.510090000000     0.467890000000     0.855583   
Cu28     Cu     0.554860000000     0.029780000000     0.590470000000     0.840911   
Cu29     Cu     0.825170000000     0.833680000000     0.054800000000     2.09055    
Cu30     Cu     0.773130000000     0.734920000000     0.017570000000     1.35079    
Cu31     Cu     0.854030000000     0.805400000000     0.516790000000     2.07554    
Cu32     Cu     0.751860000000     0.756270000000     0.553370000000     1.36693    
H1       H      0.376320000000     0.314480000000     0.739140000000     0.112243   
H2       H      0.333930000000     0.356900000000     0.832650000000     0.112212   
H3       H      0.261120000000     0.289170000000     0.771330000000     0.0360133  
H4       H      0.304390000000     0.244810000000     0.799630000000     0.0364175  
H5       H      0.227150000000     0.255870000000     0.331690000000     0.11062    
H6       H      0.273770000000     0.209320000000     0.239020000000     0.11035    
H7       H      0.300080000000     0.322390000000     0.271390000000     0.0324199  
H8       H      0.343250000000     0.278090000000     0.300240000000     0.0320287  
H9       H      0.178200000000     0.422400000000     0.476090000000     0.112084   
H10      H      0.279300000000     0.445760000000     0.548310000000     0.113038   
H11      H      0.204600000000     0.455570000000     0.619790000000     0.0286827  
H12      H      0.179060000000     0.389310000000     0.607850000000     0.0370058  
H13      H      0.392660000000     0.326670000000     0.502370000000    -0.63243    
H14      H      0.456790000000     0.380590000000     0.635180000000     0.109184   
H15      H      0.455670000000     0.306630000000     0.569070000000     0.0381663  
H16      H      0.502420000000     0.341950000000     0.513080000000     0.0382914  
H17      H      0.336480000000     0.122670000000     0.582050000000     0.11108    
H18      H      0.406780000000     0.103680000000     0.474130000000     0.110556   
H19      H      0.444580000000     0.181140000000     0.554560000000     0.0347839  
H20      H      0.428910000000     0.134360000000     0.620920000000     0.0306488  
H21      H      0.143800000000     0.160480000000     0.431970000000     0.106954   
H22      H      0.211750000000     0.229730000000     0.580000000000    -0.251318   
H23      H      0.192490000000     0.138210000000     0.568870000000     0.0491502  
H24      H      0.222110000000     0.169580000000     0.494410000000     0.0226431  
H25      H      0.123370000000     0.392430000000     0.100500000000     0.110909   
H26      H      0.137080000000     0.320190000000     0.992980000000     0.110991   
H27      H      0.150890000000     0.409430000000     0.951700000000     0.0305737  
H28      H      0.201360000000     0.424480000000     0.014840000000     0.0344137  
H29      H      0.396400000000     0.439960000000     0.936910000000     0.109268   
H30      H      0.347050000000     0.371140000000     0.069730000000    -0.639437   
H31      H      0.356370000000     0.478060000000     0.063520000000     0.0394343  
H32      H      0.321850000000     0.432210000000     0.006340000000     0.0386661  
H33      H      0.437560000000     0.157810000000     0.093290000000     0.112147   
H34      H      0.467410000000     0.257720000000     0.022770000000     0.112351   
H35      H      0.476300000000     0.184590000000     0.951650000000     0.0286085  
H36      H      0.407530000000     0.162090000000     0.960390000000     0.0372125  
H37      H      0.245140000000     0.196350000000     0.990150000000    -0.243152   
H38      H      0.178000000000     0.129480000000     0.141620000000     0.106968   
H39      H      0.185510000000     0.204890000000     0.078050000000     0.0224552  
H40      H      0.151870000000     0.174970000000     0.005390000000     0.0478701  
H41      H      0.376320000000     0.814470000000     0.739150000000     0.11226    
H42      H      0.333920000000     0.856890000000     0.832660000000     0.112334   
H43      H      0.261110000000     0.789160000000     0.771350000000     0.0360772  
H44      H      0.304380000000     0.744800000000     0.799640000000     0.036505   
H45      H      0.227150000000     0.755880000000     0.331700000000     0.110633   
H46      H      0.273790000000     0.709320000000     0.239030000000     0.110453   
H47      H      0.300090000000     0.822400000000     0.271390000000     0.0325688  
H48      H      0.343260000000     0.778090000000     0.300260000000     0.0321163  
H49      H      0.178200000000     0.922400000000     0.476100000000     0.112253   
H50      H      0.279310000000     0.945760000000     0.548330000000     0.11337    
H51      H      0.204600000000     0.955570000000     0.619800000000     0.0290137  
H52      H      0.179060000000     0.889320000000     0.607860000000     0.0370576  
H53      H      0.392670000000     0.826670000000     0.502390000000    -0.632001   
H54      H      0.456790000000     0.880600000000     0.635200000000     0.109253   
H55      H      0.455670000000     0.806640000000     0.569090000000     0.0381794  
H56      H      0.502420000000     0.841950000000     0.513100000000     0.0383344  
H57      H      0.336470000000     0.622660000000     0.582050000000     0.111318   
H58      H      0.406780000000     0.603680000000     0.474130000000     0.110729   
H59      H      0.444580000000     0.681140000000     0.554580000000     0.0347951  
H60      H      0.428900000000     0.634350000000     0.620930000000     0.0308002  
H61      H      0.143790000000     0.660490000000     0.431970000000     0.107057   
H62      H      0.211740000000     0.729730000000     0.580000000000    -0.251218   
H63      H      0.192490000000     0.638210000000     0.568870000000     0.0493508  
H64      H      0.222110000000     0.669580000000     0.494400000000     0.0227499  
H65      H      0.123380000000     0.892440000000     0.100510000000     0.111042   
H66      H      0.137080000000     0.820190000000     0.993010000000     0.111034   
H67      H      0.150880000000     0.909420000000     0.951710000000     0.0307416  
H68      H      0.201360000000     0.924480000000     0.014840000000     0.0346596  
H69      H      0.396400000000     0.939950000000     0.936910000000     0.109454   
H70      H      0.347050000000     0.871130000000     0.069730000000    -0.639534   
H71      H      0.356370000000     0.978060000000     0.063520000000     0.0398866  
H72      H      0.321850000000     0.932210000000     0.006340000000     0.0388624  
H73      H      0.437560000000     0.657810000000     0.093290000000     0.112265   
H74      H      0.467400000000     0.757720000000     0.022770000000     0.112413   
H75      H      0.476290000000     0.684590000000     0.951650000000     0.0286655  
H76      H      0.407530000000     0.662090000000     0.960390000000     0.0373997  
H77      H      0.245140000000     0.696350000000     0.990170000000    -0.243057   
H78      H      0.177990000000     0.629470000000     0.141640000000     0.107154   
H79      H      0.185520000000     0.704880000000     0.078090000000     0.0224631  
H80      H      0.151870000000     0.674980000000     0.005420000000     0.0478855  
H81      H      0.876320000000     0.314470000000     0.739140000000     0.112298   
H82      H      0.833920000000     0.356890000000     0.832650000000     0.11227    
H83      H      0.761110000000     0.289160000000     0.771330000000     0.0360699  
H84      H      0.804380000000     0.244800000000     0.799630000000     0.0364726  
H85      H      0.727150000000     0.255880000000     0.331690000000     0.110638   
H86      H      0.773790000000     0.209320000000     0.239020000000     0.110398   
H87      H      0.800080000000     0.322400000000     0.271380000000     0.0325083  
H88      H      0.843260000000     0.278090000000     0.300250000000     0.0321444  
H89      H      0.678210000000     0.422400000000     0.476100000000     0.11214    
H90      H      0.779300000000     0.445760000000     0.548320000000     0.113016   
H91      H      0.704600000000     0.455570000000     0.619800000000     0.0287144  
H92      H      0.679060000000     0.389310000000     0.607860000000     0.0370839  
H93      H      0.892670000000     0.326670000000     0.502380000000    -0.631959   
H94      H      0.956790000000     0.380600000000     0.635190000000     0.109494   
H95      H      0.955670000000     0.306640000000     0.569080000000     0.0380646  
H96      H      0.002420000000     0.341950000000     0.513090000000     0.0370224  
H97      H      0.836470000000     0.122670000000     0.582040000000     0.111081   
H98      H      0.906780000000     0.103680000000     0.474120000000     0.110598   
H99      H      0.944580000000     0.181140000000     0.554560000000     0.0349918  
H100     H      0.928900000000     0.134360000000     0.620920000000     0.0308078  
H101     H      0.643790000000     0.160480000000     0.431960000000     0.107099   
H102     H      0.711740000000     0.229730000000     0.579990000000    -0.251221   
H103     H      0.692500000000     0.138210000000     0.568850000000     0.0491662  
H104     H      0.722110000000     0.169580000000     0.494390000000     0.022642   
H105     H      0.623370000000     0.392430000000     0.100510000000     0.111016   
H106     H      0.637080000000     0.320190000000     0.993000000000     0.11118    
H107     H      0.650890000000     0.409430000000     0.951710000000     0.0306492  
H108     H      0.701360000000     0.424480000000     0.014840000000     0.0344165  
H109     H      0.896400000000     0.439960000000     0.936900000000     0.109366   
H110     H      0.847060000000     0.371140000000     0.069720000000    -0.638532   
H111     H      0.856370000000     0.478060000000     0.063510000000     0.0394799  
H112     H      0.821850000000     0.432210000000     0.006330000000     0.0386827  
H113     H      0.937560000000     0.157810000000     0.093280000000     0.112322   
H114     H      0.967400000000     0.257720000000     0.022760000000     0.112653   
H115     H      0.976290000000     0.184590000000     0.951640000000     0.0289416  
H116     H      0.907530000000     0.162090000000     0.960390000000     0.0373037  
H117     H      0.745140000000     0.196350000000     0.990160000000    -0.24317    
H118     H      0.677990000000     0.129470000000     0.141630000000     0.107047   
H119     H      0.685520000000     0.204890000000     0.078070000000     0.0225249  
H120     H      0.651870000000     0.174980000000     0.005410000000     0.0479833  
H121     H      0.876320000000     0.814490000000     0.739150000000     0.112351   
H122     H      0.833930000000     0.856900000000     0.832660000000     0.112396   
H123     H      0.761120000000     0.789170000000     0.771350000000     0.0361206  
H124     H      0.804390000000     0.744810000000     0.799640000000     0.0365485  
H125     H      0.727150000000     0.755870000000     0.331700000000     0.110743   
H126     H      0.773770000000     0.709320000000     0.239030000000     0.110489   
H127     H      0.800080000000     0.822390000000     0.271400000000     0.0326113  
H128     H      0.843260000000     0.778080000000     0.300260000000     0.0322121  
H129     H      0.678200000000     0.922400000000     0.476100000000     0.112313   
H130     H      0.779300000000     0.945760000000     0.548310000000     0.113424   
H131     H      0.704600000000     0.955580000000     0.619790000000     0.0290557  
H132     H      0.679070000000     0.889320000000     0.607860000000     0.0371469  
H133     H      0.892670000000     0.826670000000     0.502380000000    -0.631885   
H134     H      0.956790000000     0.880590000000     0.635190000000     0.109592   
H135     H      0.955670000000     0.806640000000     0.569080000000     0.0380721  
H136     H      0.002430000000     0.841950000000     0.513090000000     0.0370878  
H137     H      0.836480000000     0.622670000000     0.582070000000     0.111368   
H138     H      0.906770000000     0.603680000000     0.474140000000     0.110825   
H139     H      0.944580000000     0.681150000000     0.554580000000     0.0349969  
H140     H      0.928900000000     0.634360000000     0.620930000000     0.0309387  
H141     H      0.643800000000     0.660490000000     0.431980000000     0.107142   
H142     H      0.711740000000     0.729730000000     0.580010000000    -0.251106   
H143     H      0.692490000000     0.638210000000     0.568890000000     0.0493407  
H144     H      0.722110000000     0.669580000000     0.494420000000     0.0227267  
H145     H      0.623370000000     0.892440000000     0.100510000000     0.111171   
H146     H      0.637080000000     0.820190000000     0.993000000000     0.111202   
H147     H      0.650890000000     0.909430000000     0.951710000000     0.0308483  
H148     H      0.701360000000     0.924480000000     0.014850000000     0.0346687  
H149     H      0.896400000000     0.939950000000     0.936920000000     0.109545   
H150     H      0.847050000000     0.871130000000     0.069740000000    -0.640123   
H151     H      0.856370000000     0.978060000000     0.063530000000     0.0399489  
H152     H      0.821850000000     0.932210000000     0.006360000000     0.0388802  
H153     H      0.937550000000     0.657810000000     0.093290000000     0.112416   
H154     H      0.967400000000     0.757720000000     0.022780000000     0.112694   
H155     H      0.976300000000     0.684600000000     0.951650000000     0.0289967  
H156     H      0.907530000000     0.662100000000     0.960400000000     0.0374619  
H157     H      0.745140000000     0.696350000000     0.990160000000    -0.243065   
H158     H      0.677990000000     0.629470000000     0.141630000000     0.107212   
H159     H      0.685520000000     0.704890000000     0.078070000000     0.0225234  
H160     H      0.651870000000     0.674970000000     0.005400000000     0.0480096  
N1       N      0.317540000000     0.319400000000     0.843480000000    -0.247171   
N2       N      0.337730000000     0.299210000000     0.728050000000    -0.247006   
N3       N      0.287210000000     0.247580000000     0.227990000000    -0.254707   
N4       N      0.266420000000     0.268360000000     0.343030000000    -0.254915   
N5       N      0.252250000000     0.413700000000     0.558650000000    -0.246348   
N6       N      0.169370000000     0.437240000000     0.523800000000    -0.22415    
N7       N      0.465790000000     0.387090000000     0.583510000000    -0.21685    
N8       N      0.424400000000     0.345480000000     0.486190000000     0.0487437  
N9       N      0.427920000000     0.105110000000     0.519970000000    -0.2242     
N10      N      0.363280000000     0.153540000000     0.566240000000    -0.247605   
N11      N      0.179570000000     0.215340000000     0.556820000000    -0.0886587  
N12      N      0.142750000000     0.146990000000     0.482330000000    -0.217223   
N13      N      0.169630000000     0.345570000000     0.007790000000    -0.247537   
N14      N      0.124530000000     0.412290000000     0.054050000000    -0.223655   
N15      N      0.366470000000     0.402230000000     0.085210000000     0.0515924  
N16      N      0.403470000000     0.448090000000     0.988680000000    -0.216932   
N17      N      0.433990000000     0.232180000000     0.012010000000    -0.246242   
N18      N      0.453770000000     0.149400000000     0.046110000000    -0.223877   
N19      N      0.165000000000     0.126880000000     0.090900000000    -0.217625   
N20      N      0.231640000000     0.164400000000     0.013020000000    -0.0914958  
N21      N      0.317530000000     0.819390000000     0.843490000000    -0.247105   
N22      N      0.337720000000     0.799200000000     0.728060000000    -0.24691    
N23      N      0.287220000000     0.747580000000     0.228000000000    -0.254648   
N24      N      0.266430000000     0.768370000000     0.343040000000    -0.254848   
N25      N      0.252250000000     0.913700000000     0.558680000000    -0.246282   
N26      N      0.169370000000     0.937240000000     0.523810000000    -0.223998   
N27      N      0.465800000000     0.887090000000     0.583520000000    -0.216718   
N28      N      0.424400000000     0.845480000000     0.486210000000     0.0487945  
N29      N      0.427920000000     0.605110000000     0.519980000000    -0.22419    
N30      N      0.363270000000     0.653540000000     0.566250000000    -0.247544   
N31      N      0.179570000000     0.715350000000     0.556820000000    -0.0886271  
N32      N      0.142750000000     0.646990000000     0.482320000000    -0.217223   
N33      N      0.169630000000     0.845570000000     0.007810000000    -0.247574   
N34      N      0.124530000000     0.912300000000     0.054060000000    -0.223568   
N35      N      0.366470000000     0.902230000000     0.085220000000     0.0516655  
N36      N      0.403470000000     0.948080000000     0.988680000000    -0.216735   
N37      N      0.433990000000     0.732180000000     0.012010000000    -0.246217   
N38      N      0.453770000000     0.649400000000     0.046110000000    -0.223841   
N39      N      0.165000000000     0.626880000000     0.090920000000    -0.21764    
N40      N      0.231640000000     0.664390000000     0.013050000000    -0.0913635  
N41      N      0.817530000000     0.319390000000     0.843480000000    -0.247105   
N42      N      0.837720000000     0.299200000000     0.728050000000    -0.246916   
N43      N      0.787220000000     0.247580000000     0.227990000000    -0.254629   
N44      N      0.766430000000     0.268370000000     0.343030000000    -0.254859   
N45      N      0.752240000000     0.413700000000     0.558670000000    -0.246275   
N46      N      0.669370000000     0.437240000000     0.523810000000    -0.224143   
N47      N      0.965790000000     0.387090000000     0.583520000000    -0.217124   
N48      N      0.924400000000     0.345490000000     0.486200000000     0.048625   
N49      N      0.927930000000     0.105110000000     0.519970000000    -0.224101   
N50      N      0.863280000000     0.153540000000     0.566230000000    -0.247551   
N51      N      0.679570000000     0.215340000000     0.556810000000    -0.0885539  
N52      N      0.642750000000     0.146990000000     0.482310000000    -0.217222   
N53      N      0.669630000000     0.345570000000     0.007800000000    -0.247537   
N54      N      0.624530000000     0.412290000000     0.054050000000    -0.22363    
N55      N      0.866470000000     0.402230000000     0.085210000000     0.0514856  
N56      N      0.903470000000     0.448090000000     0.988670000000    -0.216823   
N57      N      0.933990000000     0.232180000000     0.012000000000    -0.246193   
N58      N      0.953770000000     0.149400000000     0.046110000000    -0.223997   
N59      N      0.665000000000     0.126880000000     0.090910000000    -0.217652   
N60      N      0.731640000000     0.164390000000     0.013040000000    -0.0914843  
N61      N      0.817540000000     0.819400000000     0.843490000000    -0.247096   
N62      N      0.837720000000     0.799210000000     0.728060000000    -0.246911   
N63      N      0.787210000000     0.747580000000     0.228000000000    -0.254679   
N64      N      0.766420000000     0.768360000000     0.343040000000    -0.254855   
N65      N      0.752250000000     0.913700000000     0.558670000000    -0.246289   
N66      N      0.669370000000     0.937240000000     0.523810000000    -0.224011   
N67      N      0.965800000000     0.887090000000     0.583520000000    -0.217048   
N68      N      0.924400000000     0.845480000000     0.486200000000     0.0487609  
N69      N      0.927920000000     0.605110000000     0.519980000000    -0.224103   
N70      N      0.863280000000     0.653540000000     0.566260000000    -0.247547   
N71      N      0.679570000000     0.715350000000     0.556830000000    -0.0885817  
N72      N      0.642750000000     0.646990000000     0.482340000000    -0.217195   
N73      N      0.669630000000     0.845570000000     0.007810000000    -0.247524   
N74      N      0.624530000000     0.912300000000     0.054060000000    -0.223526   
N75      N      0.866470000000     0.902230000000     0.085230000000     0.0518835  
N76      N      0.903470000000     0.948080000000     0.988690000000    -0.216652   
N77      N      0.933990000000     0.732180000000     0.012020000000    -0.246307   
N78      N      0.953770000000     0.649400000000     0.046120000000    -0.223959   
N79      N      0.665000000000     0.626880000000     0.090910000000    -0.217619   
N80      N      0.731640000000     0.664400000000     0.013040000000    -0.0913629  
O1       O      0.092670000000     0.476640000000     0.991990000000    -0.38924    
O2       O      0.503000000000     0.096060000000     0.987050000000    -0.390776   
O3       O      0.110720000000     0.085340000000     0.012160000000    -0.402034   
O4       O      0.483770000000     0.488040000000     0.961310000000    -0.404451   
O5       O      0.460940000000     0.480870000000     0.071480000000    -0.397422   
O6       O      0.096610000000     0.068430000000     0.123080000000    -0.400219   
O7       O      0.489720000000     0.085850000000     0.099400000000    -0.404417   
O8       O      0.067470000000     0.461720000000     0.100190000000    -0.403462   
O9       O      0.105060000000     0.473990000000     0.471410000000    -0.404939   
O10      O      0.476630000000     0.047820000000     0.473750000000    -0.403867   
O11      O      0.085160000000     0.078340000000     0.449920000000    -0.399037   
O12      O      0.498250000000     0.443790000000     0.500560000000    -0.395693   
O13      O      0.504770000000     0.466310000000     0.610680000000    -0.40408    
O14      O      0.104230000000     0.090820000000     0.560590000000    -0.401215   
O15      O      0.493520000000     0.073120000000     0.581340000000    -0.390156   
O16      O      0.115200000000     0.484970000000     0.584140000000    -0.391689   
O17      O      0.326910000000     0.338320000000     0.955790000000    -0.59899    
O18      O      0.308510000000     0.307430000000     0.145230000000    -0.623288   
O19      O      0.383900000000     0.293730000000     0.042980000000    -0.597839   
O20      O      0.255640000000     0.354410000000     0.041690000000    -0.598031   
O21      O      0.216670000000     0.278320000000     0.012900000000    -0.532822   
O22      O      0.344420000000     0.218610000000     0.008680000000    -0.509129   
O23      O      0.277980000000     0.229200000000     0.115690000000    -0.556768   
O24      O      0.289280000000     0.260970000000     0.925960000000    -0.495452   
O25      O      0.327430000000     0.288700000000     0.426280000000    -0.622812   
O26      O      0.358040000000     0.307130000000     0.615890000000    -0.596385   
O27      O      0.374610000000     0.237290000000     0.530830000000    -0.594341   
O28      O      0.313920000000     0.363260000000     0.528130000000    -0.597897   
O29      O      0.236090000000     0.326280000000     0.561630000000    -0.509649   
O30      O      0.295980000000     0.201160000000     0.559970000000    -0.537478   
O31      O      0.277920000000     0.272330000000     0.645190000000    -0.495794   
O32      O      0.246710000000     0.260610000000     0.455190000000    -0.559687   
O33      O      0.092660000000     0.976630000000     0.991990000000    -0.387893   
O34      O      0.503000000000     0.596060000000     0.987050000000    -0.390938   
O35      O      0.110730000000     0.585350000000     0.012170000000    -0.402116   
O36      O      0.483770000000     0.988040000000     0.961310000000    -0.402975   
O37      O      0.460940000000     0.980870000000     0.071490000000    -0.395955   
O38      O      0.096610000000     0.568430000000     0.123080000000    -0.400398   
O39      O      0.489720000000     0.585850000000     0.099400000000    -0.404584   
O40      O      0.067480000000     0.961720000000     0.100200000000    -0.402136   
O41      O      0.105060000000     0.973990000000     0.471420000000    -0.40356    
O42      O      0.476630000000     0.547820000000     0.473760000000    -0.403905   
O43      O      0.085160000000     0.578340000000     0.449920000000    -0.399167   
O44      O      0.498250000000     0.943790000000     0.500570000000    -0.394386   
O45      O      0.504770000000     0.966320000000     0.610690000000    -0.402623   
O46      O      0.104230000000     0.590820000000     0.560590000000    -0.401366   
O47      O      0.493520000000     0.573110000000     0.581350000000    -0.390222   
O48      O      0.115200000000     0.984970000000     0.584150000000    -0.390355   
O49      O      0.326910000000     0.838320000000     0.955800000000    -0.598829   
O50      O      0.308510000000     0.807440000000     0.145240000000    -0.623215   
O51      O      0.383900000000     0.793730000000     0.042990000000    -0.597895   
O52      O      0.255640000000     0.854400000000     0.041700000000    -0.598074   
O53      O      0.216670000000     0.778320000000     0.012920000000    -0.532835   
O54      O      0.344420000000     0.718600000000     0.008680000000    -0.508866   
O55      O      0.277980000000     0.729200000000     0.115700000000    -0.55669    
O56      O      0.289270000000     0.760960000000     0.925970000000    -0.495292   
O57      O      0.327430000000     0.788700000000     0.426290000000    -0.622763   
O58      O      0.358040000000     0.807130000000     0.615900000000    -0.59617    
O59      O      0.374610000000     0.737290000000     0.530840000000    -0.594218   
O60      O      0.313920000000     0.863260000000     0.528150000000    -0.597653   
O61      O      0.236090000000     0.826280000000     0.561640000000    -0.509619   
O62      O      0.295980000000     0.701160000000     0.559980000000    -0.537493   
O63      O      0.277910000000     0.772320000000     0.645200000000    -0.495611   
O64      O      0.246710000000     0.760620000000     0.455200000000    -0.559608   
O65      O      0.592660000000     0.476630000000     0.991990000000    -0.389209   
O66      O      0.003000000000     0.096060000000     0.987040000000    -0.392113   
O67      O      0.610720000000     0.085350000000     0.012170000000    -0.4021     
O68      O      0.983770000000     0.488040000000     0.961300000000    -0.403435   
O69      O      0.960940000000     0.480870000000     0.071480000000    -0.396462   
O70      O      0.596610000000     0.068430000000     0.123080000000    -0.400397   
O71      O      0.989720000000     0.085860000000     0.099390000000    -0.403864   
O72      O      0.567470000000     0.461720000000     0.100190000000    -0.403479   
O73      O      0.605060000000     0.473990000000     0.471410000000    -0.405035   
O74      O      0.976630000000     0.047820000000     0.473750000000    -0.402964   
O75      O      0.585160000000     0.078340000000     0.449910000000    -0.399032   
O76      O      0.998250000000     0.443790000000     0.500560000000    -0.395046   
O77      O      0.004770000000     0.466320000000     0.610690000000    -0.405297   
O78      O      0.604230000000     0.090820000000     0.560580000000    -0.401155   
O79      O      0.993520000000     0.073110000000     0.581340000000    -0.389317   
O80      O      0.615200000000     0.484970000000     0.584150000000    -0.391738   
O81      O      0.826910000000     0.338320000000     0.955790000000    -0.59861    
O82      O      0.808510000000     0.307440000000     0.145230000000    -0.622971   
O83      O      0.883900000000     0.293730000000     0.042980000000    -0.597547   
O84      O      0.755640000000     0.354410000000     0.041690000000    -0.597744   
O85      O      0.716670000000     0.278320000000     0.012910000000    -0.532759   
O86      O      0.844420000000     0.218600000000     0.008680000000    -0.508965   
O87      O      0.777980000000     0.229200000000     0.115690000000    -0.556723   
O88      O      0.789270000000     0.260960000000     0.925970000000    -0.49528    
O89      O      0.827430000000     0.288700000000     0.426280000000    -0.622748   
O90      O      0.858040000000     0.307130000000     0.615890000000    -0.596154   
O91      O      0.874610000000     0.237290000000     0.530830000000    -0.594161   
O92      O      0.813920000000     0.363260000000     0.528140000000    -0.59774    
O93      O      0.736090000000     0.326280000000     0.561640000000    -0.509532   
O94      O      0.795980000000     0.201160000000     0.559970000000    -0.537441   
O95      O      0.777910000000     0.272320000000     0.645190000000    -0.495636   
O96      O      0.746710000000     0.260620000000     0.455190000000    -0.559595   
O97      O      0.592660000000     0.976630000000     0.991990000000    -0.387817   
O98      O      0.003000000000     0.596060000000     0.987050000000    -0.392168   
O99      O      0.610720000000     0.585350000000     0.012160000000    -0.402184   
O100     O      0.983770000000     0.988040000000     0.961310000000    -0.402053   
O101     O      0.960940000000     0.980870000000     0.071490000000    -0.395146   
O102     O      0.596610000000     0.568430000000     0.123080000000    -0.400431   
O103     O      0.989720000000     0.585850000000     0.099400000000    -0.404006   
O104     O      0.567470000000     0.961720000000     0.100200000000    -0.402128   
O105     O      0.605060000000     0.973990000000     0.471410000000    -0.403679   
O106     O      0.976630000000     0.547820000000     0.473760000000    -0.403062   
O107     O      0.585160000000     0.578350000000     0.449920000000    -0.399132   
O108     O      0.998250000000     0.943790000000     0.500560000000    -0.393725   
O109     O      0.004770000000     0.966320000000     0.610690000000    -0.403839   
O110     O      0.604220000000     0.590820000000     0.560600000000    -0.40136    
O111     O      0.993520000000     0.573120000000     0.581350000000    -0.389313   
O112     O      0.615200000000     0.984970000000     0.584140000000    -0.3904     
O113     O      0.826910000000     0.838330000000     0.955800000000    -0.598872   
O114     O      0.808510000000     0.807430000000     0.145250000000    -0.623403   
O115     O      0.883900000000     0.793730000000     0.042990000000    -0.597859   
O116     O      0.755640000000     0.854410000000     0.041710000000    -0.598112   
O117     O      0.716670000000     0.778320000000     0.012920000000    -0.532803   
O118     O      0.844420000000     0.718610000000     0.008690000000    -0.508972   
O119     O      0.777980000000     0.729200000000     0.115700000000    -0.556711   
O120     O      0.789270000000     0.760970000000     0.925970000000    -0.495324   
O121     O      0.827430000000     0.788700000000     0.426290000000    -0.622646   
O122     O      0.858040000000     0.807140000000     0.615900000000    -0.59616    
O123     O      0.874610000000     0.737290000000     0.530840000000    -0.594119   
O124     O      0.813920000000     0.863260000000     0.528140000000    -0.597601   
O125     O      0.736090000000     0.826280000000     0.561640000000    -0.509522   
O126     O      0.795980000000     0.701160000000     0.559990000000    -0.537335   
O127     O      0.777920000000     0.772330000000     0.645200000000    -0.49567    
O128     O      0.746710000000     0.760610000000     0.455200000000    -0.559518   


