data_structure

_audit_creation_method RASPA-1.0
_audit_creation_date 2023-6-4
_audit_author_name 'Poobodin Mano'

_cell_length_a    28.0439
_cell_length_b    31.0708
_cell_length_c    22.0937
_cell_angle_alpha 89.9989
_cell_angle_beta  89.9989
_cell_angle_gamma 96.1256
_cell_volume      19141.3

_symmetry_cell_setting          triclinic
_symmetry_space_group_name_Hall 'P 1'
_symmetry_space_group_name_H-M  'P 1'
_symmetry_Int_Tables_number     1

_symmetry_equiv_pos_as_xyz 'x,y,z'

loop_
_atom_site_label
_atom_site_type_symbol
_atom_site_fract_x
_atom_site_fract_y
_atom_site_fract_z
_atom_site_charge
C1       C      0.117780000000     0.443690000000     0.051060000000     0.410563   
C2       C      0.515210000000     0.079120000000     0.046950000000     0.406278   
C3       C      0.148620000000     0.062970000000     0.035970000000     0.417568   
C4       C      0.488180000000     0.457820000000     0.058410000000     0.41937    
C5       C      0.135240000000     0.453170000000     0.554350000000     0.409974   
C6       C      0.516530000000     0.076570000000     0.560400000000     0.40928    
C7       C      0.151780000000     0.069430000000     0.591820000000     0.419301   
C8       C      0.508160000000     0.456430000000     0.521370000000     0.420268   
C9       C      0.315740000000     0.266600000000     0.912350000000     0.557971   
C10      C      0.303680000000     0.244820000000     0.138820000000     0.557144   
C11      C      0.364350000000     0.197120000000     0.017510000000     0.534235   
C12      C      0.250410000000     0.313890000000     0.031330000000     0.557466   
C13      C      0.331260000000     0.266570000000     0.414830000000     0.55772    
C14      C      0.291450000000     0.241090000000     0.636380000000     0.564661   
C15      C      0.368390000000     0.195250000000     0.527270000000     0.548081   
C16      C      0.253810000000     0.311620000000     0.520630000000     0.550127   
C17      C      0.292040000000     0.247730000000     0.806690000000    -0.00471479 
C18      C      0.309920000000     0.259700000000     0.742700000000    -0.0037313  
C19      C      0.329890000000     0.260850000000     0.244430000000    -0.00448847 
C20      C      0.312260000000     0.248590000000     0.308430000000    -0.00429357 
C21      C      0.198820000000     0.417040000000     0.502860000000    -0.0137188  
C22      C      0.239110000000     0.388980000000     0.519430000000    -0.000878027
C23      C      0.442740000000     0.401350000000     0.548780000000     0.0185409  
C24      C      0.418450000000     0.360050000000     0.520900000000    -0.079653   
C25      C      0.451650000000     0.175200000000     0.529730000000    -0.00204027 
C26      C      0.479590000000     0.136960000000     0.511580000000    -0.0133843  
C27      C      0.218780000000     0.123600000000     0.564710000000     0.0301139  
C28      C      0.191150000000     0.157990000000     0.534780000000    -0.0764147  
C29      C      0.170100000000     0.339150000000     0.016480000000    -0.0021044  
C30      C      0.149980000000     0.381860000000     0.999860000000    -0.0127557  
C31      C      0.423030000000     0.411800000000     0.009440000000     0.0260548  
C32      C      0.383570000000     0.376250000000     0.025130000000    -0.0956012  
C33      C      0.472230000000     0.134000000000     0.992500000000    -0.012769   
C34      C      0.446700000000     0.174850000000     0.006600000000    -0.00376188 
C35      C      0.207930000000     0.120720000000     0.075160000000     0.0250672  
C36      C      0.188100000000     0.163320000000     0.060160000000    -0.0725401  
C37      C      0.118130000000     0.943250000000     0.050210000000     0.41003    
C38      C      0.515780000000     0.578840000000     0.046090000000     0.406264   
C39      C      0.148130000000     0.563420000000     0.036850000000     0.417735   
C40      C      0.487860000000     0.958110000000     0.059280000000     0.419436   
C41      C      0.139690000000     0.951530000000     0.553800000000     0.409843   
C42      C      0.520260000000     0.574350000000     0.559880000000     0.409128   
C43      C      0.148010000000     0.570800000000     0.593050000000     0.418796   
C44      C      0.503840000000     0.958690000000     0.521210000000     0.419654   
C45      C      0.317100000000     0.766780000000     0.911590000000     0.558037   
C46      C      0.304350000000     0.744020000000     0.137820000000     0.557148   
C47      C      0.365210000000     0.697060000000     0.016530000000     0.534144   
C48      C      0.250940000000     0.813560000000     0.030690000000     0.557599   
C49      C      0.334180000000     0.763840000000     0.413700000000     0.558259   
C50      C      0.295300000000     0.739550000000     0.635670000000     0.563655   
C51      C      0.371690000000     0.692930000000     0.526710000000     0.548014   
C52      C      0.257570000000     0.809650000000     0.519790000000     0.549942   
C53      C      0.294310000000     0.747660000000     0.805770000000    -0.00468906 
C54      C      0.313240000000     0.758810000000     0.741990000000    -0.00373769 
C55      C      0.331110000000     0.759210000000     0.243330000000    -0.00449564 
C56      C      0.314370000000     0.746130000000     0.307400000000    -0.00419654 
C57      C      0.203010000000     0.915280000000     0.501980000000    -0.0136931  
C58      C      0.243250000000     0.887080000000     0.518270000000    -0.000880305
C59      C      0.438420000000     0.902570000000     0.546750000000     0.0186225  
C60      C      0.420000000000     0.859320000000     0.518570000000    -0.0797548  
C61      C      0.454850000000     0.672660000000     0.529160000000    -0.00206004 
C62      C      0.482670000000     0.634340000000     0.510960000000    -0.013353   
C63      C      0.217510000000     0.622650000000     0.566860000000     0.0298419  
C64      C      0.192520000000     0.657970000000     0.535050000000    -0.0756714  
C65      C      0.170640000000     0.838800000000     0.015600000000    -0.00212212 
C66      C      0.150580000000     0.881540000000     0.998980000000    -0.0127686  
C67      C      0.422850000000     0.912040000000     0.010200000000     0.0262091  
C68      C      0.383660000000     0.876230000000     0.025730000000    -0.0957967  
C69      C      0.473120000000     0.633950000000     0.991660000000    -0.0127588  
C70      C      0.447600000000     0.674800000000     0.005790000000    -0.00378797 
C71      C      0.206970000000     0.621770000000     0.075420000000     0.0252474  
C72      C      0.187930000000     0.664320000000     0.058250000000    -0.0731913  
C73      C      0.618130000000     0.443250000000     0.050190000000     0.410072   
C74      C      0.015780000000     0.078850000000     0.046070000000     0.406389   
C75      C      0.648130000000     0.063420000000     0.036840000000     0.417667   
C76      C      0.987860000000     0.458110000000     0.059270000000     0.419296   
C77      C      0.639690000000     0.451530000000     0.553770000000     0.409951   
C78      C      0.020260000000     0.074360000000     0.559870000000     0.409123   
C79      C      0.648010000000     0.070820000000     0.593030000000     0.418813   
C80      C      0.003830000000     0.458700000000     0.521180000000     0.419782   
C81      C      0.817110000000     0.266790000000     0.911550000000     0.558082   
C82      C      0.804350000000     0.244020000000     0.137770000000     0.557327   
C83      C      0.865210000000     0.197060000000     0.016490000000     0.534113   
C84      C      0.750940000000     0.313560000000     0.030650000000     0.557585   
C85      C      0.834180000000     0.263840000000     0.413660000000     0.558522   
C86      C      0.795310000000     0.239560000000     0.635620000000     0.563454   
C87      C      0.871690000000     0.192930000000     0.526670000000     0.547865   
C88      C      0.757580000000     0.309660000000     0.519740000000     0.550144   
C89      C      0.794320000000     0.247670000000     0.805730000000    -0.00462967 
C90      C      0.813250000000     0.258820000000     0.741950000000    -0.00380604 
C91      C      0.831110000000     0.259210000000     0.243290000000    -0.0045158  
C92      C      0.814370000000     0.246130000000     0.307350000000    -0.00420899 
C93      C      0.703020000000     0.415280000000     0.501960000000    -0.0136665  
C94      C      0.743250000000     0.387090000000     0.518230000000    -0.000870576
C95      C      0.938390000000     0.402590000000     0.546700000000     0.0186276  
C96      C      0.920010000000     0.359320000000     0.518520000000    -0.0797061  
C97      C      0.954860000000     0.172660000000     0.529130000000    -0.00202604 
C98      C      0.982670000000     0.134340000000     0.510930000000    -0.0134858  
C99      C      0.717520000000     0.122660000000     0.566830000000     0.0298601  
C100     C      0.692520000000     0.157980000000     0.535010000000    -0.0757478  
C101     C      0.670640000000     0.338800000000     0.015560000000    -0.00212289 
C102     C      0.650580000000     0.381540000000     0.998950000000    -0.0127427  
C103     C      0.922850000000     0.412040000000     0.010170000000     0.0261638  
C104     C      0.883660000000     0.376230000000     0.025700000000    -0.0957822  
C105     C      0.973120000000     0.133950000000     0.991640000000    -0.0128404  
C106     C      0.947600000000     0.174800000000     0.005760000000    -0.00369622 
C107     C      0.706960000000     0.121780000000     0.075390000000     0.0253     
C108     C      0.687930000000     0.164330000000     0.058200000000    -0.0731808  
C109     C      0.617780000000     0.943690000000     0.051080000000     0.410423   
C110     C      0.015210000000     0.579120000000     0.046950000000     0.406377   
C111     C      0.648620000000     0.562970000000     0.035970000000     0.417486   
C112     C      0.988190000000     0.957820000000     0.058420000000     0.419026   
C113     C      0.635250000000     0.953180000000     0.554370000000     0.409862   
C114     C      0.016530000000     0.576570000000     0.560410000000     0.409269   
C115     C      0.651780000000     0.569420000000     0.591820000000     0.419495   
C116     C      0.008160000000     0.956430000000     0.521390000000     0.420258   
C117     C      0.815740000000     0.766600000000     0.912370000000     0.558      
C118     C      0.803680000000     0.744820000000     0.138850000000     0.557087   
C119     C      0.864350000000     0.697130000000     0.017540000000     0.534373   
C120     C      0.750410000000     0.813890000000     0.031360000000     0.557679   
C121     C      0.831270000000     0.766570000000     0.414850000000     0.557459   
C122     C      0.791450000000     0.741090000000     0.636410000000     0.564312   
C123     C      0.868400000000     0.695250000000     0.527290000000     0.548026   
C124     C      0.753820000000     0.811620000000     0.520650000000     0.549877   
C125     C      0.792040000000     0.747730000000     0.806710000000    -0.00472971 
C126     C      0.809920000000     0.759690000000     0.742730000000    -0.00372105 
C127     C      0.829890000000     0.760860000000     0.244450000000    -0.00452173 
C128     C      0.812260000000     0.748590000000     0.308460000000    -0.00427972 
C129     C      0.698820000000     0.917040000000     0.502880000000    -0.013735   
C130     C      0.739120000000     0.888980000000     0.519450000000    -0.000849162
C131     C      0.942740000000     0.901350000000     0.548800000000     0.0185376  
C132     C      0.918450000000     0.860050000000     0.520920000000    -0.07966    
C133     C      0.951650000000     0.675200000000     0.529750000000    -0.00195613 
C134     C      0.979590000000     0.636960000000     0.511590000000    -0.013525   
C135     C      0.718780000000     0.623600000000     0.564730000000     0.0300963  
C136     C      0.691150000000     0.657990000000     0.534800000000    -0.0764339  
C137     C      0.670100000000     0.839150000000     0.016510000000    -0.00209504 
C138     C      0.649980000000     0.881860000000     0.999880000000    -0.0127322  
C139     C      0.923030000000     0.911800000000     0.009450000000     0.0260192  
C140     C      0.883570000000     0.876250000000     0.025150000000    -0.0955633  
C141     C      0.972230000000     0.634000000000     0.992510000000    -0.0128603  
C142     C      0.946700000000     0.674850000000     0.006620000000    -0.00370773 
C143     C      0.707930000000     0.620710000000     0.075170000000     0.0250655  
C144     C      0.688110000000     0.663310000000     0.060190000000    -0.0724581  
Cu1      Cu     0.564370000000     0.008810000000     0.992690000000     0.846352   
Cu2      Cu     0.070120000000     0.514570000000     0.104230000000     0.847332   
Cu3      Cu     0.585420000000     0.023670000000     0.503630000000     0.84717    
Cu4      Cu     0.066220000000     0.505910000000     0.610750000000     0.850899   
Cu5      Cu     0.348130000000     0.288180000000     0.035330000000     1.92664    
Cu6      Cu     0.267490000000     0.224240000000     0.015740000000     1.93091    
Cu7      Cu     0.349490000000     0.285360000000     0.540630000000     1.99962    
Cu8      Cu     0.272360000000     0.221390000000     0.510260000000     1.92893    
Cu9      Cu     0.564790000000     0.508440000000     0.991800000000     0.845727   
Cu10     Cu     0.070540000000     0.014190000000     0.103360000000     0.847172   
Cu11     Cu     0.589240000000     0.521610000000     0.502950000000     0.847853   
Cu12     Cu     0.070640000000     0.004170000000     0.610350000000     0.852163   
Cu13     Cu     0.348790000000     0.788030000000     0.034830000000     1.92364    
Cu14     Cu     0.268340000000     0.724110000000     0.014480000000     1.93332    
Cu15     Cu     0.353260000000     0.783240000000     0.539370000000     1.99049    
Cu16     Cu     0.275690000000     0.719250000000     0.509780000000     1.93353    
Cu17     Cu     0.064790000000     0.008440000000     0.991810000000     0.845428   
Cu18     Cu     0.570550000000     0.514180000000     0.103350000000     0.847577   
Cu19     Cu     0.089250000000     0.021610000000     0.502960000000     0.847539   
Cu20     Cu     0.570640000000     0.504160000000     0.610340000000     0.852323   
Cu21     Cu     0.848790000000     0.288030000000     0.034790000000     1.92376    
Cu22     Cu     0.768340000000     0.224110000000     0.014440000000     1.93415    
Cu23     Cu     0.853270000000     0.283250000000     0.539320000000     1.99181    
Cu24     Cu     0.775700000000     0.219260000000     0.509730000000     1.93388    
Cu25     Cu     0.064380000000     0.508810000000     0.992680000000     0.846625   
Cu26     Cu     0.570120000000     0.014580000000     0.104230000000     0.847072   
Cu27     Cu     0.085420000000     0.523670000000     0.503630000000     0.847408   
Cu28     Cu     0.566230000000     0.005930000000     0.610770000000     0.850538   
Cu29     Cu     0.848130000000     0.788180000000     0.035360000000     1.92678    
Cu30     Cu     0.767490000000     0.724250000000     0.015760000000     1.93043    
Cu31     Cu     0.849490000000     0.785360000000     0.540660000000     1.99995    
Cu32     Cu     0.772360000000     0.721390000000     0.510290000000     1.92835    
H1       H      0.347910000000     0.296930000000     0.837460000000     0.10466    
H2       H      0.252900000000     0.212510000000     0.708720000000     0.10413    
H3       H      0.293610000000     0.212580000000     0.814840000000     0.0424489  
H4       H      0.253990000000     0.254210000000     0.811570000000     0.0406833  
H5       H      0.348130000000     0.253540000000     0.738350000000     0.0417741  
H6       H      0.308390000000     0.294910000000     0.734940000000     0.0410967  
H7       H      0.271220000000     0.214510000000     0.213510000000     0.103225   
H8       H      0.369790000000     0.295210000000     0.342490000000     0.10496    
H9       H      0.367320000000     0.252880000000     0.238450000000     0.0416283  
H10      H      0.329990000000     0.296320000000     0.237410000000     0.0420372  
H11      H      0.313400000000     0.213270000000     0.315640000000     0.0414819  
H12      H      0.274190000000     0.255100000000     0.313300000000     0.0416505  
H13      H      0.169580000000     0.404130000000     0.593230000000     0.10274    
H14      H      0.186510000000     0.332470000000     0.510250000000     0.108199   
H15      H      0.177600000000     0.402760000000     0.463880000000     0.0429715  
H16      H      0.215440000000     0.449350000000     0.487690000000     0.0416353  
H17      H      0.253730000000     0.397660000000     0.565130000000     0.0401084  
H18      H      0.269330000000     0.396200000000     0.487120000000     0.0372668  
H19      H      0.463270000000     0.423770000000     0.457950000000     0.101821   
H20      H      0.378870000000     0.310000000000     0.554360000000    -0.616115   
H21      H      0.465900000000     0.392950000000     0.587060000000     0.0408712  
H22      H      0.415110000000     0.420700000000     0.567760000000     0.0327073  
H23      H      0.443750000000     0.345000000000     0.490750000000     0.0572746  
H24      H      0.386820000000     0.367860000000     0.494180000000     0.0570683  
H25      H      0.385380000000     0.131990000000     0.520780000000     0.106949   
H26      H      0.466660000000     0.111180000000     0.602510000000     0.102319   
H27      H      0.462330000000     0.202820000000     0.498820000000     0.0400976  
H28      H      0.461850000000     0.186710000000     0.576060000000     0.040544   
H29      H      0.515510000000     0.150080000000     0.494370000000     0.0410178  
H30      H      0.461370000000     0.118400000000     0.473560000000     0.0428155  
H31      H      0.195310000000     0.104140000000     0.655080000000     0.102927   
H32      H      0.242400000000     0.196870000000     0.496710000000    -0.584401   
H33      H      0.251380000000     0.139120000000     0.587570000000     0.0348268  
H34      H      0.230170000000     0.101420000000     0.529210000000     0.0370974  
H35      H      0.184510000000     0.183760000000     0.567680000000     0.0599503  
H36      H      0.155520000000     0.143480000000     0.518860000000     0.0598994  
H37      H      0.235980000000     0.377200000000     0.044820000000     0.106514   
H38      H      0.155730000000     0.399390000000     0.095290000000     0.102502   
H39      H      0.165150000000     0.316710000000     0.977210000000     0.0408684  
H40      H      0.149400000000     0.323200000000     0.054730000000     0.0388643  
H41      H      0.115220000000     0.374230000000     0.975920000000     0.0419715  
H42      H      0.174470000000     0.400730000000     0.967640000000     0.0431326  
H43      H      0.436160000000     0.419700000000     0.106590000000     0.104929   
H44      H      0.379670000000     0.313100000000     0.041700000000    -0.576859   
H45      H      0.406930000000     0.438520000000     0.986180000000     0.0306524  
H46      H      0.448570000000     0.399290000000     0.976920000000     0.0374993  
H47      H      0.361530000000     0.369330000000     0.983760000000     0.055663   
H48      H      0.360350000000     0.387500000000     0.061380000000     0.0606951  
H49      H      0.478190000000     0.124650000000     0.089680000000     0.102325   
H50      H      0.378810000000     0.133500000000     0.006970000000     0.106699   
H51      H      0.504390000000     0.143730000000     0.964220000000     0.0405455  
H52      H      0.448970000000     0.110350000000     0.964860000000     0.0429006  
H53      H      0.454710000000     0.198680000000     0.969430000000     0.0386331  
H54      H      0.461360000000     0.191240000000     0.048390000000     0.0425966  
H55      H      0.206570000000     0.091210000000     0.986870000000     0.106279   
H56      H      0.235320000000     0.199830000000     0.011070000000    -0.579385   
H57      H      0.196380000000     0.110250000000     0.121490000000     0.0353442  
H58      H      0.247760000000     0.125660000000     0.073750000000     0.0337387  
H59      H      0.195280000000     0.187130000000     0.097280000000     0.0555821  
H60      H      0.148450000000     0.157550000000     0.055890000000     0.0518309  
H61      H      0.349560000000     0.797280000000     0.836970000000     0.104757   
H62      H      0.256660000000     0.711230000000     0.708030000000     0.10414    
H63      H      0.295390000000     0.712550000000     0.814770000000     0.0426665  
H64      H      0.256300000000     0.754500000000     0.809460000000     0.0405373  
H65      H      0.351390000000     0.752260000000     0.738720000000     0.0416554  
H66      H      0.312200000000     0.793980000000     0.733320000000     0.0411949  
H67      H      0.271940000000     0.713400000000     0.212360000000     0.1033     
H68      H      0.372530000000     0.792220000000     0.341110000000     0.104974   
H69      H      0.368530000000     0.751490000000     0.236310000000     0.0418204  
H70      H      0.330950000000     0.794740000000     0.237260000000     0.0420012  
H71      H      0.315880000000     0.710780000000     0.313760000000     0.0412967  
H72      H      0.276290000000     0.752350000000     0.313290000000     0.0417513  
H73      H      0.174280000000     0.902660000000     0.592660000000     0.102815   
H74      H      0.190340000000     0.830720000000     0.509710000000     0.108107   
H75      H      0.181550000000     0.901030000000     0.463190000000     0.0429731  
H76      H      0.219690000000     0.947530000000     0.486650000000     0.0416593  
H77      H      0.258190000000     0.895830000000     0.563780000000     0.0400719  
H78      H      0.273280000000     0.894100000000     0.485630000000     0.0370447  
H79      H      0.459060000000     0.926850000000     0.457050000000     0.10167    
H80      H      0.382810000000     0.807920000000     0.552750000000    -0.61134    
H81      H      0.460010000000     0.896900000000     0.587750000000     0.0416187  
H82      H      0.407480000000     0.919530000000     0.561610000000     0.0318009  
H83      H      0.448020000000     0.847180000000     0.489470000000     0.0566303  
H84      H      0.387970000000     0.863740000000     0.490410000000     0.0568812  
H85      H      0.388460000000     0.629590000000     0.520420000000     0.107019   
H86      H      0.470430000000     0.608910000000     0.602170000000     0.102312   
H87      H      0.465570000000     0.700260000000     0.498230000000     0.0401883  
H88      H      0.465140000000     0.684180000000     0.575480000000     0.0406104  
H89      H      0.518440000000     0.647410000000     0.493190000000     0.0409685  
H90      H      0.464170000000     0.615590000000     0.473310000000     0.0428009  
H91      H      0.191760000000     0.604700000000     0.656840000000     0.102754   
H92      H      0.245490000000     0.694760000000     0.496770000000    -0.585124   
H93      H      0.250260000000     0.637180000000     0.590420000000     0.0345908  
H94      H      0.228430000000     0.599500000000     0.532350000000     0.0366555  
H95      H      0.187000000000     0.684710000000     0.566890000000     0.0596805  
H96      H      0.156510000000     0.644790000000     0.518700000000     0.0599428  
H97      H      0.236340000000     0.876760000000     0.044740000000     0.106469   
H98      H      0.156030000000     0.898940000000     0.094470000000     0.102436   
H99      H      0.165850000000     0.816430000000     0.976230000000     0.0409118  
H100     H      0.149770000000     0.822770000000     0.053660000000     0.0387517  
H101     H      0.115910000000     0.873960000000     0.974790000000     0.0419408  
H102     H      0.175210000000     0.900480000000     0.966980000000     0.0431022  
H103     H      0.435920000000     0.919820000000     0.107390000000     0.104879   
H104     H      0.380250000000     0.812990000000     0.041580000000    -0.575433   
H105     H      0.406510000000     0.938710000000     0.987170000000     0.0306191  
H106     H      0.448460000000     0.899800000000     0.977530000000     0.0376184  
H107     H      0.361590000000     0.869390000000     0.984360000000     0.0555499  
H108     H      0.360410000000     0.887170000000     0.062170000000     0.0607252  
H109     H      0.478960000000     0.624500000000     0.088840000000     0.102335   
H110     H      0.379700000000     0.633460000000     0.005880000000     0.10678    
H111     H      0.505370000000     0.643710000000     0.963560000000     0.0405431  
H112     H      0.449920000000     0.610380000000     0.963830000000     0.0429806  
H113     H      0.455680000000     0.698680000000     0.968710000000     0.0386721  
H114     H      0.462180000000     0.691130000000     0.047660000000     0.0426107  
H115     H      0.206240000000     0.591320000000     0.987810000000     0.106347   
H116     H      0.236190000000     0.699780000000     0.009290000000    -0.581054   
H117     H      0.194530000000     0.612170000000     0.121750000000     0.0354102  
H118     H      0.246830000000     0.626340000000     0.075060000000     0.0337042  
H119     H      0.194760000000     0.688740000000     0.094670000000     0.0553473  
H120     H      0.148340000000     0.658830000000     0.052940000000     0.0517964  
H121     H      0.849560000000     0.297280000000     0.836930000000     0.104778   
H122     H      0.756660000000     0.211240000000     0.707990000000     0.104116   
H123     H      0.795400000000     0.212560000000     0.814720000000     0.0426416  
H124     H      0.756310000000     0.254500000000     0.809420000000     0.0405187  
H125     H      0.851400000000     0.252260000000     0.738670000000     0.0416628  
H126     H      0.812200000000     0.293990000000     0.733280000000     0.0412042  
H127     H      0.771940000000     0.213390000000     0.212310000000     0.103266   
H128     H      0.872530000000     0.292220000000     0.341060000000     0.104962   
H129     H      0.868530000000     0.251490000000     0.236270000000     0.0418129  
H130     H      0.830950000000     0.294740000000     0.237220000000     0.0419931  
H131     H      0.815880000000     0.210780000000     0.313710000000     0.04129    
H132     H      0.776290000000     0.252350000000     0.313240000000     0.0417476  
H133     H      0.674280000000     0.402660000000     0.592630000000     0.10281    
H134     H      0.690350000000     0.330730000000     0.509660000000     0.108098   
H135     H      0.681560000000     0.401040000000     0.463160000000     0.042942   
H136     H      0.719690000000     0.447540000000     0.486620000000     0.0416087  
H137     H      0.758200000000     0.395830000000     0.563740000000     0.0400515  
H138     H      0.773280000000     0.394110000000     0.485590000000     0.0370078  
H139     H      0.959050000000     0.426880000000     0.457010000000     0.101638   
H140     H      0.882820000000     0.307920000000     0.552700000000    -0.611968   
H141     H      0.959960000000     0.396930000000     0.587720000000     0.0415905  
H142     H      0.907430000000     0.419540000000     0.561510000000     0.0317442  
H143     H      0.948040000000     0.347190000000     0.489430000000     0.0566041  
H144     H      0.887970000000     0.363730000000     0.490330000000     0.0568131  
H145     H      0.888470000000     0.129590000000     0.520380000000     0.106928   
H146     H      0.970430000000     0.108920000000     0.602150000000     0.102278   
H147     H      0.965580000000     0.200260000000     0.498190000000     0.0401558  
H148     H      0.965140000000     0.184190000000     0.575440000000     0.0405926  
H149     H      0.018440000000     0.147410000000     0.493160000000     0.0410399  
H150     H      0.964170000000     0.115590000000     0.473290000000     0.0427946  
H151     H      0.691770000000     0.104720000000     0.656820000000     0.102733   
H152     H      0.745500000000     0.194770000000     0.496730000000    -0.585296   
H153     H      0.750270000000     0.137190000000     0.590390000000     0.0345897  
H154     H      0.728430000000     0.099500000000     0.532310000000     0.0366288  
H155     H      0.687000000000     0.184720000000     0.566840000000     0.0597167  
H156     H      0.656520000000     0.144800000000     0.518670000000     0.0599603  
H157     H      0.736340000000     0.376760000000     0.044700000000     0.106433   
H158     H      0.656030000000     0.398930000000     0.094440000000     0.102404   
H159     H      0.665850000000     0.316440000000     0.976180000000     0.0409055  
H160     H      0.649770000000     0.322770000000     0.053620000000     0.0387367  
H161     H      0.615910000000     0.373960000000     0.974760000000     0.0419143  
H162     H      0.675210000000     0.400480000000     0.966950000000     0.0430646  
H163     H      0.935920000000     0.419820000000     0.107370000000     0.104842   
H164     H      0.880250000000     0.312990000000     0.041540000000    -0.575463   
H165     H      0.906510000000     0.438720000000     0.987150000000     0.0305753  
H166     H      0.948460000000     0.399810000000     0.977500000000     0.0375984  
H167     H      0.861590000000     0.369400000000     0.984320000000     0.0555231  
H168     H      0.860410000000     0.387170000000     0.062130000000     0.0607118  
H169     H      0.978960000000     0.124500000000     0.088820000000     0.102331   
H170     H      0.879710000000     0.133460000000     0.005840000000     0.106741   
H171     H      0.005380000000     0.143710000000     0.963540000000     0.0405947  
H172     H      0.949930000000     0.110380000000     0.963810000000     0.042956   
H173     H      0.955690000000     0.198680000000     0.968670000000     0.0386215  
H174     H      0.962190000000     0.191130000000     0.047630000000     0.0425711  
H175     H      0.706230000000     0.091330000000     0.987790000000     0.106337   
H176     H      0.736200000000     0.199780000000     0.009240000000    -0.58149    
H177     H      0.694520000000     0.112200000000     0.121720000000     0.0353693  
H178     H      0.746830000000     0.126350000000     0.075040000000     0.0336802  
H179     H      0.694750000000     0.188760000000     0.094610000000     0.055325   
H180     H      0.648330000000     0.158840000000     0.052880000000     0.0517632  
H181     H      0.847910000000     0.796930000000     0.837490000000     0.104677   
H182     H      0.752900000000     0.712500000000     0.708740000000     0.104139   
H183     H      0.793610000000     0.712580000000     0.814870000000     0.0424641  
H184     H      0.753990000000     0.754210000000     0.811590000000     0.0406925  
H185     H      0.848130000000     0.753540000000     0.738380000000     0.0417779  
H186     H      0.808390000000     0.794910000000     0.734960000000     0.0410946  
H187     H      0.771230000000     0.714510000000     0.213530000000     0.103271   
H188     H      0.869790000000     0.795210000000     0.342520000000     0.104962   
H189     H      0.867320000000     0.752880000000     0.238470000000     0.0416401  
H190     H      0.829990000000     0.796320000000     0.237440000000     0.042045   
H191     H      0.813400000000     0.713270000000     0.315670000000     0.0414778  
H192     H      0.774190000000     0.755100000000     0.313330000000     0.0416546  
H193     H      0.669590000000     0.904150000000     0.593250000000     0.102818   
H194     H      0.686510000000     0.832470000000     0.510280000000     0.108153   
H195     H      0.677610000000     0.902760000000     0.463910000000     0.0429873  
H196     H      0.715450000000     0.949350000000     0.487700000000     0.0416763  
H197     H      0.753740000000     0.897670000000     0.565150000000     0.0401198  
H198     H      0.769340000000     0.896200000000     0.487130000000     0.0372694  
H199     H      0.963270000000     0.923760000000     0.457970000000     0.101826   
H200     H      0.878870000000     0.810000000000     0.554390000000    -0.616224   
H201     H      0.965910000000     0.892940000000     0.587080000000     0.040861   
H202     H      0.915120000000     0.920690000000     0.567790000000     0.0327311  
H203     H      0.943750000000     0.845000000000     0.490770000000     0.0572632  
H204     H      0.886820000000     0.867860000000     0.494200000000     0.0570819  
H205     H      0.885380000000     0.631990000000     0.520800000000     0.106976   
H206     H      0.966650000000     0.611180000000     0.602520000000     0.102288   
H207     H      0.962330000000     0.702830000000     0.498840000000     0.0400598  
H208     H      0.961850000000     0.686710000000     0.576090000000     0.0405082  
H209     H      0.015510000000     0.650080000000     0.494390000000     0.0411102  
H210     H      0.961380000000     0.618400000000     0.473570000000     0.04285    
H211     H      0.695310000000     0.604130000000     0.655100000000     0.102911   
H212     H      0.742400000000     0.696870000000     0.496730000000    -0.584173   
H213     H      0.751370000000     0.639110000000     0.587590000000     0.0348397  
H214     H      0.730170000000     0.601420000000     0.529220000000     0.037127   
H215     H      0.684510000000     0.683760000000     0.567700000000     0.0599404  
H216     H      0.655520000000     0.643480000000     0.518880000000     0.0599028  
H217     H      0.735980000000     0.877200000000     0.044850000000     0.106535   
H218     H      0.655730000000     0.899400000000     0.095310000000     0.10248    
H219     H      0.665150000000     0.816700000000     0.977250000000     0.0408772  
H220     H      0.649400000000     0.823200000000     0.054760000000     0.0388537  
H221     H      0.615220000000     0.874230000000     0.975940000000     0.0419658  
H222     H      0.674470000000     0.900730000000     0.967660000000     0.0431557  
H223     H      0.936160000000     0.919710000000     0.106600000000     0.10493    
H224     H      0.879670000000     0.813100000000     0.041720000000    -0.576886   
H225     H      0.906930000000     0.938520000000     0.986190000000     0.0306934  
H226     H      0.948570000000     0.899290000000     0.976930000000     0.0375062  
H227     H      0.861530000000     0.869330000000     0.983770000000     0.0556617  
H228     H      0.860350000000     0.887500000000     0.061390000000     0.0607077  
H229     H      0.978200000000     0.624640000000     0.089690000000     0.102363   
H230     H      0.878810000000     0.633500000000     0.006990000000     0.106672   
H231     H      0.004390000000     0.643740000000     0.964230000000     0.0406238  
H232     H      0.948970000000     0.610360000000     0.964870000000     0.0429185  
H233     H      0.954710000000     0.698680000000     0.969460000000     0.0386079  
H234     H      0.961370000000     0.691240000000     0.048410000000     0.042573   
H235     H      0.706570000000     0.591210000000     0.986870000000     0.106293   
H236     H      0.735320000000     0.699840000000     0.011100000000    -0.579204   
H237     H      0.696400000000     0.610230000000     0.121500000000     0.0353523  
H238     H      0.747770000000     0.625650000000     0.073750000000     0.033761   
H239     H      0.695290000000     0.687120000000     0.097310000000     0.0555684  
H240     H      0.648450000000     0.657540000000     0.055920000000     0.051804   
N1       N      0.321290000000     0.272940000000     0.851940000000    -0.245037   
N2       N      0.281540000000     0.235100000000     0.696100000000    -0.246691   
N3       N      0.298940000000     0.237480000000     0.199120000000    -0.24482    
N4       N      0.341100000000     0.272670000000     0.355100000000    -0.244947   
N5       N      0.166710000000     0.422700000000     0.554140000000    -0.213057   
N6       N      0.222930000000     0.342470000000     0.517100000000    -0.242523   
N7       N      0.471330000000     0.427390000000     0.504030000000    -0.222236   
N8       N      0.403970000000     0.330160000000     0.569660000000     0.0447937  
N9       N      0.399360000000     0.164320000000     0.526390000000    -0.241667   
N10      N      0.485880000000     0.107710000000     0.562530000000    -0.213318   
N11      N      0.188370000000     0.098870000000     0.609030000000    -0.224223   
N12      N      0.217280000000     0.176250000000     0.482280000000     0.0363594  
N13      N      0.221090000000     0.346050000000     0.032830000000    -0.244276   
N14      N      0.142610000000     0.408420000000     0.053350000000    -0.213427   
N15      N      0.448520000000     0.429190000000     0.063420000000    -0.221194   
N16      N      0.403800000000     0.337150000000     0.044760000000     0.040633   
N17      N      0.487730000000     0.112810000000     0.047540000000    -0.212464   
N18      N      0.394260000000     0.165470000000     0.011740000000    -0.237846   
N19      N      0.190360000000     0.088810000000     0.029560000000    -0.221124   
N20      N      0.207860000000     0.179810000000     0.002470000000     0.0360188  
N21      N      0.323020000000     0.773150000000     0.851230000000    -0.24505    
N22      N      0.285260000000     0.733860000000     0.695390000000    -0.246512   
N23      N      0.299720000000     0.736320000000     0.198040000000    -0.244914   
N24      N      0.343710000000     0.769880000000     0.353900000000    -0.245164   
N25      N      0.171220000000     0.921110000000     0.553520000000    -0.213083   
N26      N      0.226820000000     0.840610000000     0.516280000000    -0.242508   
N27      N      0.467030000000     0.929820000000     0.503230000000    -0.221946   
N28      N      0.408220000000     0.828250000000     0.566910000000     0.0440212  
N29      N      0.402540000000     0.661900000000     0.525930000000    -0.241622   
N30      N      0.489430000000     0.605350000000     0.562050000000    -0.213336   
N31      N      0.185150000000     0.599530000000     0.610690000000    -0.223981   
N32      N      0.220290000000     0.674110000000     0.482600000000     0.0363718  
N33      N      0.221560000000     0.845670000000     0.032330000000    -0.244384   
N34      N      0.142980000000     0.908000000000     0.052500000000    -0.213368   
N35      N      0.448280000000     0.929390000000     0.064240000000    -0.221189   
N36      N      0.404200000000     0.837170000000     0.044900000000     0.0402587  
N37      N      0.488440000000     0.612630000000     0.046690000000    -0.212417   
N38      N      0.395150000000     0.665430000000     0.010760000000    -0.237721   
N39      N      0.189850000000     0.589250000000     0.030410000000    -0.221222   
N40      N      0.208870000000     0.679640000000     0.000610000000     0.0367711  
N41      N      0.823030000000     0.273150000000     0.851190000000    -0.245109   
N42      N      0.785260000000     0.233870000000     0.695350000000    -0.246398   
N43      N      0.799720000000     0.236320000000     0.197990000000    -0.244909   
N44      N      0.843710000000     0.269880000000     0.353860000000    -0.245198   
N45      N      0.671220000000     0.421110000000     0.553490000000    -0.213112   
N46      N      0.726830000000     0.340620000000     0.516240000000    -0.242557   
N47      N      0.967010000000     0.429830000000     0.503190000000    -0.221983   
N48      N      0.908230000000     0.328260000000     0.566860000000     0.0441048  
N49      N      0.902550000000     0.161910000000     0.525900000000    -0.241561   
N50      N      0.989430000000     0.105350000000     0.562030000000    -0.213395   
N51      N      0.685160000000     0.099550000000     0.610670000000    -0.22396    
N52      N      0.720300000000     0.174120000000     0.482570000000     0.0364469  
N53      N      0.721560000000     0.345670000000     0.032280000000    -0.244376   
N54      N      0.642980000000     0.407990000000     0.052470000000    -0.213347   
N55      N      0.948280000000     0.429390000000     0.064220000000    -0.221179   
N56      N      0.904200000000     0.337170000000     0.044860000000     0.0402661  
N57      N      0.988440000000     0.112640000000     0.046670000000    -0.212497   
N58      N      0.895160000000     0.165430000000     0.010730000000    -0.237691   
N59      N      0.689850000000     0.089260000000     0.030390000000    -0.221228   
N60      N      0.708870000000     0.179640000000     0.000560000000     0.0368085  
N61      N      0.821290000000     0.772940000000     0.851970000000    -0.245087   
N62      N      0.781540000000     0.735090000000     0.696130000000    -0.246626   
N63      N      0.798940000000     0.737480000000     0.199140000000    -0.244892   
N64      N      0.841100000000     0.772670000000     0.355130000000    -0.244969   
N65      N      0.666720000000     0.922710000000     0.554170000000    -0.213074   
N66      N      0.722930000000     0.842480000000     0.517130000000    -0.242371   
N67      N      0.971330000000     0.927390000000     0.504050000000    -0.222243   
N68      N      0.903970000000     0.830160000000     0.569690000000     0.0448206  
N69      N      0.899360000000     0.664320000000     0.526410000000    -0.241722   
N70      N      0.985880000000     0.607710000000     0.562540000000    -0.213299   
N71      N      0.688370000000     0.598860000000     0.609040000000    -0.224198   
N72      N      0.717280000000     0.676260000000     0.482300000000     0.0363672  
N73      N      0.721090000000     0.846050000000     0.032860000000    -0.244313   
N74      N      0.642610000000     0.908420000000     0.053360000000    -0.213388   
N75      N      0.948520000000     0.929190000000     0.063430000000    -0.221093   
N76      N      0.903800000000     0.837160000000     0.044780000000     0.0405749  
N77      N      0.987740000000     0.612820000000     0.047550000000    -0.212521   
N78      N      0.894270000000     0.665470000000     0.011770000000    -0.237757   
N79      N      0.690360000000     0.588810000000     0.029560000000    -0.221101   
N80      N      0.707860000000     0.679810000000     0.002500000000     0.0359107  
O1       O      0.101870000000     0.456280000000     0.000230000000    -0.396294   
O2       O      0.526690000000     0.062050000000     0.996620000000    -0.392769   
O3       O      0.127690000000     0.046710000000     0.988490000000    -0.40518    
O4       O      0.503480000000     0.469630000000     0.005670000000    -0.406716   
O5       O      0.510060000000     0.472110000000     0.106460000000    -0.402507   
O6       O      0.130600000000     0.055520000000     0.088830000000    -0.402877   
O7       O      0.529110000000     0.064610000000     0.097610000000    -0.399156   
O8       O      0.110120000000     0.463630000000     0.100390000000    -0.399106   
O9       O      0.129480000000     0.475510000000     0.506470000000    -0.396819   
O10      O      0.539690000000     0.070370000000     0.511520000000    -0.397593   
O11      O      0.143130000000     0.063410000000     0.535270000000    -0.409305   
O12      O      0.533400000000     0.477740000000     0.480930000000    -0.405545   
O13      O      0.517190000000     0.461920000000     0.577930000000    -0.407501   
O14      O      0.126200000000     0.048510000000     0.632330000000    -0.405038   
O15      O      0.521810000000     0.053690000000     0.607810000000    -0.399293   
O16      O      0.112280000000     0.459660000000     0.603190000000    -0.399188   
O17      O      0.343220000000     0.289390000000     0.948210000000    -0.614867   
O18      O      0.337160000000     0.271740000000     0.118780000000    -0.599589   
O19      O      0.381540000000     0.236370000000     0.025990000000    -0.582019   
O20      O      0.294680000000     0.322990000000     0.041970000000    -0.61395    
O21      O      0.233810000000     0.275460000000     0.018420000000    -0.603367   
O22      O      0.319190000000     0.186970000000     0.013410000000    -0.590767   
O23      O      0.273870000000     0.224470000000     0.103120000000    -0.61727    
O24      O      0.283710000000     0.238190000000     0.932350000000    -0.602757   
O25      O      0.356820000000     0.288280000000     0.453790000000    -0.613703   
O26      O      0.326030000000     0.268240000000     0.620110000000    -0.623859   
O27      O      0.384150000000     0.234660000000     0.535960000000    -0.607423   
O28      O      0.298130000000     0.322280000000     0.530820000000    -0.607417   
O29      O      0.237830000000     0.272210000000     0.512970000000    -0.602079   
O30      O      0.323950000000     0.184430000000     0.518240000000    -0.601158   
O31      O      0.265920000000     0.219520000000     0.597420000000    -0.613777   
O32      O      0.296670000000     0.239240000000     0.431040000000    -0.610339   
O33      O      0.102270000000     0.955880000000     0.999360000000    -0.395393   
O34      O      0.527170000000     0.561730000000     0.995750000000    -0.392562   
O35      O      0.127260000000     0.547080000000     0.989380000000    -0.405438   
O36      O      0.503110000000     0.969980000000     0.006540000000    -0.40681    
O37      O      0.509730000000     0.972390000000     0.107340000000    -0.402392   
O38      O      0.130080000000     0.556030000000     0.089710000000    -0.402787   
O39      O      0.529670000000     0.564310000000     0.096740000000    -0.399168   
O40      O      0.110420000000     0.963170000000     0.099540000000    -0.39889    
O41      O      0.133710000000     0.973770000000     0.505870000000    -0.396607   
O42      O      0.543140000000     0.568010000000     0.510820000000    -0.397677   
O43      O      0.139590000000     0.565000000000     0.536420000000    -0.408787   
O44      O      0.529290000000     0.980210000000     0.481130000000    -0.405041   
O45      O      0.512710000000     0.963830000000     0.577860000000    -0.406196   
O46      O      0.121900000000     0.550080000000     0.633270000000    -0.404307   
O47      O      0.526000000000     0.551760000000     0.607440000000    -0.399457   
O48      O      0.116860000000     0.958060000000     0.602730000000    -0.399147   
O49      O      0.344290000000     0.789610000000     0.947710000000    -0.614673   
O50      O      0.337850000000     0.771010000000     0.118010000000    -0.599769   
O51      O      0.382350000000     0.736310000000     0.025150000000    -0.580903   
O52      O      0.295150000000     0.822630000000     0.041730000000    -0.613977   
O53      O      0.234480000000     0.775200000000     0.017250000000    -0.604041   
O54      O      0.320070000000     0.686880000000     0.012310000000    -0.590809   
O55      O      0.274480000000     0.723920000000     0.101940000000    -0.616921   
O56      O      0.285070000000     0.738250000000     0.931280000000    -0.602997   
O57      O      0.360090000000     0.785460000000     0.452420000000    -0.613629   
O58      O      0.329860000000     0.766690000000     0.619180000000    -0.620628   
O59      O      0.387580000000     0.732310000000     0.535320000000    -0.606487   
O60      O      0.301960000000     0.820220000000     0.529620000000    -0.606728   
O61      O      0.241410000000     0.770240000000     0.512480000000    -0.602306   
O62      O      0.327220000000     0.682210000000     0.517630000000    -0.600973   
O63      O      0.269810000000     0.717710000000     0.596920000000    -0.614696   
O64      O      0.299490000000     0.736740000000     0.430230000000    -0.610976   
O65      O      0.602270000000     0.455880000000     0.999340000000    -0.395563   
O66      O      0.027170000000     0.061730000000     0.995750000000    -0.392641   
O67      O      0.627250000000     0.047070000000     0.989380000000    -0.405436   
O68      O      0.003120000000     0.469980000000     0.006530000000    -0.406846   
O69      O      0.009730000000     0.472380000000     0.107330000000    -0.402472   
O70      O      0.630080000000     0.056030000000     0.089700000000    -0.402786   
O71      O      0.029660000000     0.064320000000     0.096730000000    -0.399138   
O72      O      0.610420000000     0.463160000000     0.099520000000    -0.399138   
O73      O      0.633720000000     0.473770000000     0.505850000000    -0.396781   
O74      O      0.043140000000     0.068010000000     0.510810000000    -0.3976     
O75      O      0.639590000000     0.065010000000     0.536410000000    -0.408826   
O76      O      0.029290000000     0.480210000000     0.481110000000    -0.405224   
O77      O      0.012700000000     0.463820000000     0.577830000000    -0.406375   
O78      O      0.621910000000     0.050100000000     0.633260000000    -0.404344   
O79      O      0.026000000000     0.051760000000     0.607430000000    -0.399455   
O80      O      0.616870000000     0.458050000000     0.602710000000    -0.399278   
O81      O      0.844300000000     0.289610000000     0.947670000000    -0.614769   
O82      O      0.837850000000     0.271010000000     0.117960000000    -0.599949   
O83      O      0.882350000000     0.236310000000     0.025110000000    -0.580911   
O84      O      0.795150000000     0.322630000000     0.041690000000    -0.614012   
O85      O      0.734480000000     0.275200000000     0.017200000000    -0.604135   
O86      O      0.820070000000     0.186880000000     0.012270000000    -0.59091    
O87      O      0.774480000000     0.223920000000     0.101900000000    -0.617138   
O88      O      0.785070000000     0.238260000000     0.931240000000    -0.603024   
O89      O      0.860090000000     0.285460000000     0.452370000000    -0.613971   
O90      O      0.829870000000     0.266700000000     0.619140000000    -0.620657   
O91      O      0.887580000000     0.232320000000     0.535280000000    -0.606611   
O92      O      0.801970000000     0.320220000000     0.529580000000    -0.607088   
O93      O      0.741420000000     0.270250000000     0.512440000000    -0.602413   
O94      O      0.827220000000     0.182210000000     0.517590000000    -0.600977   
O95      O      0.769810000000     0.217720000000     0.596870000000    -0.614614   
O96      O      0.799490000000     0.236740000000     0.430190000000    -0.611278   
O97      O      0.601870000000     0.956280000000     0.000240000000    -0.396043   
O98      O      0.026690000000     0.562060000000     0.996620000000    -0.392735   
O99      O      0.627680000000     0.546720000000     0.988480000000    -0.405128   
O100     O      0.003480000000     0.969630000000     0.005670000000    -0.406396   
O101     O      0.010060000000     0.972120000000     0.106470000000    -0.402266   
O102     O      0.630600000000     0.555510000000     0.088830000000    -0.402905   
O103     O      0.029110000000     0.564610000000     0.097610000000    -0.39912    
O104     O      0.610120000000     0.963640000000     0.100400000000    -0.398945   
O105     O      0.629490000000     0.975510000000     0.506480000000    -0.396636   
O106     O      0.039690000000     0.570380000000     0.511520000000    -0.397508   
O107     O      0.643130000000     0.563410000000     0.535280000000    -0.409367   
O108     O      0.033400000000     0.977730000000     0.480940000000    -0.405279   
O109     O      0.017190000000     0.961920000000     0.577950000000    -0.40731    
O110     O      0.626210000000     0.548500000000     0.632330000000    -0.405052   
O111     O      0.021800000000     0.553680000000     0.607810000000    -0.399247   
O112     O      0.612300000000     0.959670000000     0.603220000000    -0.398944   
O113     O      0.843220000000     0.789390000000     0.948230000000    -0.614778   
O114     O      0.837170000000     0.771740000000     0.118800000000    -0.599602   
O115     O      0.881540000000     0.736370000000     0.026010000000    -0.582158   
O116     O      0.794680000000     0.822990000000     0.041990000000    -0.614066   
O117     O      0.733810000000     0.775470000000     0.018440000000    -0.60345    
O118     O      0.819200000000     0.686970000000     0.013440000000    -0.590623   
O119     O      0.773880000000     0.724470000000     0.103140000000    -0.617197   
O120     O      0.783710000000     0.738190000000     0.932370000000    -0.602736   
O121     O      0.856820000000     0.788280000000     0.453820000000    -0.613652   
O122     O      0.826040000000     0.768240000000     0.620140000000    -0.623769   
O123     O      0.884150000000     0.734660000000     0.535980000000    -0.607467   
O124     O      0.798140000000     0.822280000000     0.530850000000    -0.607463   
O125     O      0.737830000000     0.772210000000     0.513000000000    -0.60194    
O126     O      0.823950000000     0.684430000000     0.518260000000    -0.60098    
O127     O      0.765920000000     0.719510000000     0.597450000000    -0.613568   
O128     O      0.796660000000     0.739240000000     0.431070000000    -0.610049   


