data_structure

_audit_creation_method RASPA-1.0
_audit_creation_date 2023-5-23
_audit_author_name 'Poobodin Mano'

_cell_length_a    31.8159
_cell_length_b    31.8162
_cell_length_c    42.5973
_cell_angle_alpha 90
_cell_angle_beta  90
_cell_angle_gamma 90
_cell_volume      43119.6

_symmetry_cell_setting          triclinic
_symmetry_space_group_name_Hall 'P 1'
_symmetry_space_group_name_H-M  'P 1'
_symmetry_Int_Tables_number     1

_symmetry_equiv_pos_as_xyz 'x,y,z'

loop_
_atom_site_label
_atom_site_type_symbol
_atom_site_fract_x
_atom_site_fract_y
_atom_site_fract_z
_atom_site_charge
C1       C      0.259490000000     0.007910000000     0.500870000000     0.431229   
C2       C      0.419980000000     0.007810000000     0.001600000000     0.428943   
C3       C      0.339670000000     0.009270000000     0.440850000000     0.429072   
C4       C      0.339630000000     0.006400000000     0.060890000000     0.428952   
C5       C      0.259730000000     0.006730000000     0.249340000000     0.431041   
C6       C      0.420220000000     0.008320000000     0.252280000000     0.429405   
C7       C      0.341250000000     0.006210000000     0.190810000000     0.429515   
C8       C      0.338450000000     0.009100000000     0.310830000000     0.428834   
C9       C      0.007650000000     0.675870000000     0.449190000000     0.428994   
C10      C      0.007500000000     0.672980000000     0.069230000000     0.429351   
C11      C      0.008210000000     0.594070000000     0.507730000000     0.429714   
C12      C      0.006790000000     0.754570000000     0.510740000000     0.431044   
C13      C      0.007640000000     0.674030000000     0.199140000000     0.429676   
C14      C      0.007340000000     0.674150000000     0.319190000000     0.428982   
C15      C      0.007670000000     0.593690000000     0.258520000000     0.430075   
C16      C      0.007210000000     0.754120000000     0.259120000000     0.431987   
C17      C      0.674070000000     0.007680000000     0.449280000000     0.429632   
C18      C      0.674170000000     0.007380000000     0.069330000000     0.428656   
C19      C      0.754150000000     0.007200000000     0.509260000000     0.431776   
C20      C      0.593710000000     0.007750000000     0.508630000000     0.429734   
C21      C      0.675930000000     0.007690000000     0.199330000000     0.428964   
C22      C      0.672990000000     0.007540000000     0.319370000000     0.429687   
C23      C      0.754600000000     0.006780000000     0.260900000000     0.431107   
C24      C      0.594100000000     0.008300000000     0.257830000000     0.429734   
C25      C      0.086720000000     0.007280000000     0.503600000000     0.43266    
C26      C      0.926640000000     0.007110000000     0.506570000000     0.432884   
C27      C      0.006140000000     0.087060000000     0.501300000000     0.432718   
C28      C      0.006450000000     0.927260000000     0.508880000000     0.432385   
C29      C      0.087080000000     0.006170000000     0.251250000000     0.43242    
C30      C      0.927290000000     0.006380000000     0.258970000000     0.432211   
C31      C      0.007250000000     0.086690000000     0.253690000000     0.432787   
C32      C      0.007180000000     0.926610000000     0.256520000000     0.432906   
C33      C      0.006080000000     0.341220000000     0.440990000000     0.429684   
C34      C      0.008970000000     0.338410000000     0.061010000000     0.428289   
C35      C      0.008180000000     0.420180000000     0.502440000000     0.429627   
C36      C      0.006620000000     0.259700000000     0.499510000000     0.431074   
C37      C      0.009140000000     0.339600000000     0.191030000000     0.429138   
C38      C      0.006260000000     0.339630000000     0.311070000000     0.429621   
C39      C      0.007680000000     0.419950000000     0.251730000000     0.429955   
C40      C      0.007780000000     0.259460000000     0.251070000000     0.431314   
C41      C      0.968640000000     0.339310000000     0.392440000000     0.0334304  
C42      C      0.042700000000     0.342690000000     0.392390000000     0.0308871  
C43      C      0.042750000000     0.342120000000     0.359690000000     0.031008   
C44      C      0.968700000000     0.338730000000     0.359590000000     0.0334641  
C45      C      0.046500000000     0.336590000000     0.109570000000     0.0307522  
C46      C      0.972480000000     0.340370000000     0.109680000000     0.0329775  
C47      C      0.972530000000     0.340810000000     0.142400000000     0.0331527  
C48      C      0.046550000000     0.337050000000     0.142440000000     0.0308682  
C49      C      0.034410000000     0.151600000000     0.271730000000     0.0322848  
C50      C      0.980700000000     0.150700000000     0.233400000000     0.0347762  
C51      C      0.979440000000     0.194580000000     0.233880000000     0.03511    
C52      C      0.036000000000     0.195390000000     0.269830000000     0.032756   
C53      C      0.979150000000     0.151910000000     0.019020000000     0.0315947  
C54      C      0.031210000000     0.150890000000     0.479440000000     0.0326135  
C55      C      0.033140000000     0.194830000000     0.480420000000     0.0328298  
C56      C      0.978030000000     0.195660000000     0.017610000000     0.0319434  
C57      C      0.819500000000     0.034140000000     0.279310000000     0.0328759  
C58      C      0.818660000000     0.977430000000     0.243490000000     0.0350415  
C59      C      0.862420000000     0.978540000000     0.242020000000     0.0358278  
C60      C      0.863450000000     0.032330000000     0.280270000000     0.0326903  
C61      C      0.673120000000     0.970610000000     0.400730000000     0.0333496  
C62      C      0.673910000000     0.044740000000     0.400690000000     0.0309754  
C63      C      0.673340000000     0.044650000000     0.367920000000     0.0310861  
C64      C      0.672830000000     0.970520000000     0.367960000000     0.0334091  
C65      C      0.675580000000     0.970550000000     0.150770000000     0.033215   
C66      C      0.675970000000     0.044670000000     0.150680000000     0.030835   
C67      C      0.675180000000     0.044530000000     0.117890000000     0.0308111  
C68      C      0.675110000000     0.970410000000     0.117980000000     0.0331737  
C69      C      0.819060000000     0.033290000000     0.028050000000     0.0324131  
C70      C      0.817930000000     0.980760000000     0.488800000000     0.035437   
C71      C      0.861720000000     0.982440000000     0.486910000000     0.0361517  
C72      C      0.862930000000     0.031610000000     0.028520000000     0.0325251  
C73      C      0.970650000000     0.528650000000     0.257000000000     0.0335678  
C74      C      0.044750000000     0.528780000000     0.255270000000     0.0311398  
C75      C      0.044740000000     0.484970000000     0.253270000000     0.0312038  
C76      C      0.970640000000     0.484850000000     0.254980000000     0.0335526  
C77      C      0.980790000000     0.817930000000     0.238690000000     0.0354003  
C78      C      0.033350000000     0.819000000000     0.277920000000     0.0330534  
C79      C      0.031690000000     0.862870000000     0.278410000000     0.0334166  
C80      C      0.982490000000     0.861710000000     0.236820000000     0.0361666  
C81      C      0.971310000000     0.485220000000     0.004400000000     0.0330703  
C82      C      0.045440000000     0.485170000000     0.504310000000     0.0311574  
C83      C      0.045440000000     0.529070000000     0.505680000000     0.0311732  
C84      C      0.971320000000     0.529030000000     0.005920000000     0.0330971  
C85      C      0.044630000000     0.675900000000     0.400540000000     0.0308743  
C86      C      0.970510000000     0.675550000000     0.400630000000     0.0332673  
C87      C      0.970370000000     0.675100000000     0.367840000000     0.0332776  
C88      C      0.044490000000     0.675120000000     0.367750000000     0.0308706  
C89      C      0.044610000000     0.673310000000     0.117780000000     0.0310251  
C90      C      0.970480000000     0.672850000000     0.117820000000     0.0333435  
C91      C      0.970570000000     0.673120000000     0.150590000000     0.0333269  
C92      C      0.044700000000     0.673870000000     0.150550000000     0.0309288  
C93      C      0.034200000000     0.819440000000     0.029150000000     0.0322075  
C94      C      0.977480000000     0.818650000000     0.493340000000     0.0350748  
C95      C      0.978600000000     0.862410000000     0.491890000000     0.0358799  
C96      C      0.032400000000     0.863390000000     0.030130000000     0.0316775  
C97      C      0.529050000000     0.971440000000     0.255920000000     0.0335151  
C98      C      0.529120000000     0.045560000000     0.255690000000     0.0311902  
C99      C      0.485210000000     0.045570000000     0.254240000000     0.0310992  
C100     C      0.485250000000     0.971450000000     0.254320000000     0.0335789  
C101     C      0.194820000000     0.033250000000     0.230300000000     0.0327583  
C102     C      0.195720000000     0.978090000000     0.267470000000     0.034946   
C103     C      0.151970000000     0.979190000000     0.268900000000     0.0359093  
C104     C      0.150870000000     0.031290000000     0.229360000000     0.0326304  
C105     C      0.484870000000     0.970770000000     0.504930000000     0.0335687  
C106     C      0.485020000000     0.044860000000     0.003220000000     0.0307279  
C107     C      0.528820000000     0.044860000000     0.005300000000     0.0307419  
C108     C      0.528670000000     0.970770000000     0.507030000000     0.0335838  
C109     C      0.340880000000     0.972660000000     0.392220000000     0.0331061  
C110     C      0.337110000000     0.046680000000     0.392260000000     0.0309665  
C111     C      0.336640000000     0.046630000000     0.359390000000     0.0308951  
C112     C      0.340420000000     0.972610000000     0.359500000000     0.0331178  
C113     C      0.338730000000     0.968840000000     0.109410000000     0.0333752  
C114     C      0.342130000000     0.042890000000     0.109520000000     0.0307853  
C115     C      0.342700000000     0.042830000000     0.142220000000     0.0309321  
C116     C      0.339330000000     0.968780000000     0.142260000000     0.0334098  
C117     C      0.195420000000     0.036110000000     0.019660000000     0.0317865  
C118     C      0.194610000000     0.979580000000     0.483680000000     0.0350768  
C119     C      0.150720000000     0.980810000000     0.483240000000     0.0348952  
C120     C      0.151640000000     0.034480000000     0.021590000000     0.0313486  
C121     C      0.259490000000     0.007910000000     0.000870000000     0.424254   
C122     C      0.419980000000     0.007810000000     0.501600000000     0.429875   
C123     C      0.339670000000     0.009270000000     0.940850000000     0.428223   
C124     C      0.339630000000     0.006400000000     0.560890000000     0.429489   
C125     C      0.259730000000     0.006730000000     0.749330000000     0.43104    
C126     C      0.420220000000     0.008320000000     0.752280000000     0.429442   
C127     C      0.341250000000     0.006210000000     0.690810000000     0.429509   
C128     C      0.338450000000     0.009100000000     0.810830000000     0.428985   
C129     C      0.007650000000     0.675870000000     0.949190000000     0.428465   
C130     C      0.007500000000     0.672980000000     0.569230000000     0.429713   
C131     C      0.008210000000     0.594070000000     0.007740000000     0.428998   
C132     C      0.006790000000     0.754570000000     0.010740000000     0.430309   
C133     C      0.007640000000     0.674030000000     0.699140000000     0.429671   
C134     C      0.007340000000     0.674150000000     0.819190000000     0.429072   
C135     C      0.007670000000     0.593690000000     0.758520000000     0.430107   
C136     C      0.007210000000     0.754120000000     0.759110000000     0.432046   
C137     C      0.674070000000     0.007680000000     0.949280000000     0.429098   
C138     C      0.674170000000     0.007380000000     0.569330000000     0.42901    
C139     C      0.754150000000     0.007200000000     0.009260000000     0.431018   
C140     C      0.593710000000     0.007750000000     0.008630000000     0.429017   
C141     C      0.675930000000     0.007690000000     0.699330000000     0.428963   
C142     C      0.672990000000     0.007540000000     0.819370000000     0.429836   
C143     C      0.754600000000     0.006780000000     0.760910000000     0.431125   
C144     C      0.594100000000     0.008300000000     0.757830000000     0.429776   
C145     C      0.086720000000     0.007280000000     0.003600000000     0.426574   
C146     C      0.926640000000     0.007110000000     0.006570000000     0.426783   
C147     C      0.006140000000     0.087060000000     0.001300000000     0.422438   
C148     C      0.006450000000     0.927260000000     0.008880000000     0.426223   
C149     C      0.087080000000     0.006170000000     0.751250000000     0.432697   
C150     C      0.927290000000     0.006380000000     0.758970000000     0.43222    
C151     C      0.007250000000     0.086690000000     0.753690000000     0.432795   
C152     C      0.007180000000     0.926610000000     0.756520000000     0.432912   
C153     C      0.006080000000     0.341220000000     0.940990000000     0.428845   
C154     C      0.008970000000     0.338410000000     0.561010000000     0.428774   
C155     C      0.008180000000     0.420180000000     0.002440000000     0.42886    
C156     C      0.006620000000     0.259700000000     0.999510000000     0.436494   
C157     C      0.009140000000     0.339600000000     0.691030000000     0.429146   
C158     C      0.006260000000     0.339630000000     0.811070000000     0.429711   
C159     C      0.007680000000     0.419950000000     0.751730000000     0.429999   
C160     C      0.007780000000     0.259460000000     0.751070000000     0.431334   
C161     C      0.968640000000     0.339310000000     0.892440000000     0.0336939  
C162     C      0.042700000000     0.342690000000     0.892390000000     0.0311212  
C163     C      0.042750000000     0.342120000000     0.859700000000     0.0312056  
C164     C      0.968700000000     0.338730000000     0.859590000000     0.0336988  
C165     C      0.046500000000     0.336590000000     0.609570000000     0.0309121  
C166     C      0.972480000000     0.340370000000     0.609680000000     0.0331298  
C167     C      0.972520000000     0.340810000000     0.642400000000     0.0331153  
C168     C      0.046550000000     0.337050000000     0.642440000000     0.0309135  
C169     C      0.034410000000     0.151600000000     0.771730000000     0.0323635  
C170     C      0.980700000000     0.150700000000     0.733400000000     0.0348201  
C171     C      0.979440000000     0.194580000000     0.733880000000     0.0351525  
C172     C      0.036000000000     0.195390000000     0.769840000000     0.0327442  
C173     C      0.979150000000     0.151910000000     0.519020000000     0.0358318  
C174     C      0.031210000000     0.150890000000     0.979440000000     0.0329821  
C175     C      0.033140000000     0.194830000000     0.980420000000     0.0341871  
C176     C      0.978030000000     0.195660000000     0.517620000000     0.035098   
C177     C      0.819500000000     0.034140000000     0.779320000000     0.0328446  
C178     C      0.818660000000     0.977430000000     0.743490000000     0.0350939  
C179     C      0.862420000000     0.978540000000     0.742020000000     0.0358643  
C180     C      0.863450000000     0.032330000000     0.780270000000     0.0327922  
C181     C      0.673120000000     0.970610000000     0.900730000000     0.0336549  
C182     C      0.673910000000     0.044740000000     0.900690000000     0.0313052  
C183     C      0.673340000000     0.044650000000     0.867910000000     0.0313836  
C184     C      0.672830000000     0.970520000000     0.867960000000     0.0336529  
C185     C      0.675580000000     0.970550000000     0.650770000000     0.033254   
C186     C      0.675970000000     0.044670000000     0.650680000000     0.0308746  
C187     C      0.675180000000     0.044530000000     0.617890000000     0.030875   
C188     C      0.675110000000     0.970410000000     0.617980000000     0.0332732  
C189     C      0.819060000000     0.033290000000     0.528050000000     0.0330318  
C190     C      0.817930000000     0.980760000000     0.988800000000     0.0396021  
C191     C      0.861720000000     0.982440000000     0.986910000000     0.0396706  
C192     C      0.862930000000     0.031610000000     0.528520000000     0.0334494  
C193     C      0.970650000000     0.528650000000     0.757000000000     0.0336683  
C194     C      0.044750000000     0.528780000000     0.755270000000     0.0312425  
C195     C      0.044740000000     0.484970000000     0.753270000000     0.0313046  
C196     C      0.970640000000     0.484850000000     0.754980000000     0.0336507  
C197     C      0.980790000000     0.817930000000     0.738690000000     0.0354701  
C198     C      0.033350000000     0.819000000000     0.777920000000     0.0330825  
C199     C      0.031690000000     0.862870000000     0.778400000000     0.0335397  
C200     C      0.982490000000     0.861710000000     0.736810000000     0.036129   
C201     C      0.971310000000     0.485220000000     0.504400000000     0.0335386  
C202     C      0.045440000000     0.485170000000     0.004310000000     0.0306672  
C203     C      0.045440000000     0.529070000000     0.005680000000     0.0307381  
C204     C      0.971320000000     0.529030000000     0.505920000000     0.0335607  
C205     C      0.044630000000     0.675890000000     0.900540000000     0.0312068  
C206     C      0.970510000000     0.675550000000     0.900630000000     0.0335727  
C207     C      0.970370000000     0.675100000000     0.867840000000     0.0335169  
C208     C      0.044490000000     0.675120000000     0.867750000000     0.0311223  
C209     C      0.044610000000     0.673310000000     0.617780000000     0.0310947  
C210     C      0.970480000000     0.672850000000     0.617820000000     0.0334244  
C211     C      0.970570000000     0.673120000000     0.650590000000     0.0333727  
C212     C      0.044700000000     0.673870000000     0.650550000000     0.0309719  
C213     C      0.034200000000     0.819440000000     0.529160000000     0.0328514  
C214     C      0.977480000000     0.818650000000     0.993340000000     0.0392591  
C215     C      0.978600000000     0.862410000000     0.991890000000     0.0394048  
C216     C      0.032410000000     0.863390000000     0.530130000000     0.032655   
C217     C      0.529050000000     0.971440000000     0.755920000000     0.0336161  
C218     C      0.529120000000     0.045560000000     0.755690000000     0.0312938  
C219     C      0.485210000000     0.045570000000     0.754240000000     0.0312007  
C220     C      0.485250000000     0.971450000000     0.754320000000     0.0336767  
C221     C      0.194820000000     0.033250000000     0.730300000000     0.0327855  
C222     C      0.195720000000     0.978090000000     0.767470000000     0.0349932  
C223     C      0.151970000000     0.979190000000     0.768900000000     0.0359832  
C224     C      0.150870000000     0.031290000000     0.729360000000     0.0326852  
C225     C      0.484870000000     0.970770000000     0.004930000000     0.0330836  
C226     C      0.485020000000     0.044860000000     0.503220000000     0.0311958  
C227     C      0.528820000000     0.044860000000     0.505300000000     0.0312018  
C228     C      0.528670000000     0.970770000000     0.007030000000     0.0331293  
C229     C      0.340880000000     0.972660000000     0.892220000000     0.0333475  
C230     C      0.337110000000     0.046680000000     0.892260000000     0.0312574  
C231     C      0.336640000000     0.046630000000     0.859390000000     0.031145   
C232     C      0.340420000000     0.972610000000     0.859500000000     0.033352   
C233     C      0.338740000000     0.968840000000     0.609410000000     0.0334973  
C234     C      0.342130000000     0.042890000000     0.609520000000     0.0308731  
C235     C      0.342700000000     0.042830000000     0.642210000000     0.03094    
C236     C      0.339330000000     0.968780000000     0.642260000000     0.0334544  
C237     C      0.195420000000     0.036110000000     0.519660000000     0.032746   
C238     C      0.194610000000     0.979580000000     0.983680000000     0.0386901  
C239     C      0.150720000000     0.980810000000     0.983240000000     0.0386057  
C240     C      0.151640000000     0.034480000000     0.521590000000     0.0322532  
H1       H      0.938590000000     0.338100000000     0.404390000000     0.0388508  
H2       H      0.072850000000     0.344240000000     0.404210000000     0.0390811  
H3       H      0.072940000000     0.343320000000     0.347910000000     0.0389855  
H4       H      0.938680000000     0.337160000000     0.347600000000     0.0388018  
H5       H      0.076510000000     0.334940000000     0.097580000000     0.0385432  
H6       H      0.942300000000     0.341760000000     0.097900000000     0.0386198  
H7       H      0.942380000000     0.342480000000     0.154210000000     0.0387224  
H8       H      0.076600000000     0.335670000000     0.154400000000     0.0387025  
H9       H      0.056270000000     0.135640000000     0.287220000000     0.0366318  
H10      H      0.958710000000     0.134010000000     0.218460000000     0.0366241  
H11      H      0.956960000000     0.210580000000     0.218920000000     0.0360061  
H12      H      0.058570000000     0.212040000000     0.284330000000     0.0362162  
H13      H      0.957860000000     0.135950000000     0.034960000000     0.0358461  
H14      H      0.052430000000     0.134070000000     0.463960000000     0.0354711  
H15      H      0.055260000000     0.210900000000     0.465200000000     0.0356551  
H16      H      0.956290000000     0.212280000000     0.032820000000     0.0361229  
H17      H      0.803440000000     0.056900000000     0.294000000000     0.0360316  
H18      H      0.802050000000     0.955020000000     0.228840000000     0.0363546  
H19      H      0.878350000000     0.956560000000     0.226590000000     0.0358023  
H20      H      0.880250000000     0.054250000000     0.295200000000     0.0362335  
H21      H      0.672990000000     0.940490000000     0.412630000000     0.0388743  
H22      H      0.674330000000     0.074870000000     0.412570000000     0.0389555  
H23      H      0.673480000000     0.074770000000     0.356010000000     0.0390991  
H24      H      0.672470000000     0.940380000000     0.356080000000     0.0387635  
H25      H      0.675670000000     0.940440000000     0.162690000000     0.0387464  
H26      H      0.676260000000     0.074820000000     0.162530000000     0.0386555  
H27      H      0.675060000000     0.074640000000     0.105960000000     0.0388018  
H28      H      0.674830000000     0.940260000000     0.106120000000     0.0385395  
H29      H      0.803120000000     0.054170000000     0.044290000000     0.0349252  
H30      H      0.801080000000     0.959930000000     0.473040000000     0.0355971  
H31      H      0.877630000000     0.962370000000     0.470090000000     0.0351311  
H32      H      0.879830000000     0.051700000000     0.044770000000     0.0344883  
H33      H      0.940530000000     0.544490000000     0.258390000000     0.0387828  
H34      H      0.074860000000     0.544730000000     0.255240000000     0.0389     
H35      H      0.074850000000     0.469130000000     0.251890000000     0.0388798  
H36      H      0.940520000000     0.468910000000     0.255000000000     0.0387655  
H37      H      0.959940000000     0.801100000000     0.222930000000     0.0355509  
H38      H      0.054240000000     0.803030000000     0.294140000000     0.0350925  
H39      H      0.051800000000     0.879750000000     0.294660000000     0.0345509  
H40      H      0.962400000000     0.877660000000     0.220020000000     0.0350841  
H41      H      0.941150000000     0.469360000000     0.003950000000     0.0383076  
H42      H      0.075540000000     0.469220000000     0.503750000000     0.0388142  
H43      H      0.075550000000     0.545020000000     0.506120000000     0.0388214  
H44      H      0.941170000000     0.544890000000     0.006500000000     0.0382941  
H45      H      0.074780000000     0.676160000000     0.412390000000     0.038736   
H46      H      0.940400000000     0.675650000000     0.412550000000     0.038847   
H47      H      0.940210000000     0.674840000000     0.355980000000     0.0387273  
H48      H      0.074600000000     0.674990000000     0.355820000000     0.0389518  
H49      H      0.074730000000     0.673430000000     0.105870000000     0.0389322  
H50      H      0.940330000000     0.672500000000     0.105940000000     0.0385625  
H51      H      0.940440000000     0.673000000000     0.162490000000     0.0387677  
H52      H      0.074830000000     0.674260000000     0.162430000000     0.0388644  
H53      H      0.056960000000     0.803360000000     0.043830000000     0.0357756  
H54      H      0.955050000000     0.802060000000     0.478690000000     0.0364024  
H55      H      0.956620000000     0.878360000000     0.476470000000     0.0358528  
H56      H      0.054340000000     0.880170000000     0.045060000000     0.0360499  
H57      H      0.544900000000     0.941280000000     0.256520000000     0.0388551  
H58      H      0.545070000000     0.075670000000     0.256150000000     0.0387667  
H59      H      0.469270000000     0.075670000000     0.253650000000     0.0387772  
H60      H      0.469390000000     0.941290000000     0.253850000000     0.0388384  
H61      H      0.210860000000     0.055390000000     0.215090000000     0.0356152  
H62      H      0.212370000000     0.956340000000     0.282640000000     0.0361158  
H63      H      0.136050000000     0.957870000000     0.284840000000     0.0352033  
H64      H      0.134030000000     0.052520000000     0.213900000000     0.0353999  
H65      H      0.468930000000     0.940650000000     0.504930000000     0.0388     
H66      H      0.469180000000     0.074970000000     0.001820000000     0.0383272  
H67      H      0.544790000000     0.074970000000     0.005290000000     0.0383368  
H68      H      0.544490000000     0.940640000000     0.508440000000     0.0388134  
H69      H      0.342560000000     0.942520000000     0.404030000000     0.0388373  
H70      H      0.335730000000     0.076730000000     0.404220000000     0.0388141  
H71      H      0.334980000000     0.076640000000     0.347400000000     0.0388009  
H72      H      0.341820000000     0.942430000000     0.347720000000     0.0387791  
H73      H      0.337170000000     0.938810000000     0.097420000000     0.0385521  
H74      H      0.343310000000     0.073070000000     0.097730000000     0.0388654  
H75      H      0.344260000000     0.072980000000     0.154030000000     0.038959   
H76      H      0.338130000000     0.938720000000     0.154210000000     0.0387278  
H77      H      0.212070000000     0.058670000000     0.034160000000     0.0360664  
H78      H      0.210610000000     0.957110000000     0.468700000000     0.0360612  
H79      H      0.134030000000     0.958820000000     0.468290000000     0.0366266  
H80      H      0.135680000000     0.056310000000     0.037100000000     0.0363767  
H81      H      0.938590000000     0.338100000000     0.904390000000     0.0395229  
H82      H      0.072850000000     0.344240000000     0.904210000000     0.0396843  
H83      H      0.072940000000     0.343320000000     0.847910000000     0.0392614  
H84      H      0.938680000000     0.337160000000     0.847600000000     0.039092   
H85      H      0.076510000000     0.334940000000     0.597580000000     0.0388176  
H86      H      0.942300000000     0.341760000000     0.597900000000     0.0387882  
H87      H      0.942380000000     0.342480000000     0.654210000000     0.0388675  
H88      H      0.076600000000     0.335670000000     0.654400000000     0.0388499  
H89      H      0.056270000000     0.135640000000     0.787210000000     0.0367298  
H90      H      0.958710000000     0.134010000000     0.718460000000     0.0366742  
H91      H      0.956960000000     0.210580000000     0.718920000000     0.0360821  
H92      H      0.058570000000     0.212040000000     0.784330000000     0.036359   
H93      H      0.957860000000     0.135950000000     0.534960000000     0.0352252  
H94      H      0.052430000000     0.134070000000     0.963960000000     0.0363943  
H95      H      0.055260000000     0.210900000000     0.965200000000     0.0359672  
H96      H      0.956280000000     0.212280000000     0.532820000000     0.0360808  
H97      H      0.803440000000     0.056900000000     0.794000000000     0.0361938  
H98      H      0.802050000000     0.955020000000     0.728840000000     0.0364378  
H99      H      0.878350000000     0.956560000000     0.726590000000     0.0358593  
H100     H      0.880250000000     0.054250000000     0.795200000000     0.0363463  
H101     H      0.672990000000     0.940490000000     0.912630000000     0.0395303  
H102     H      0.674330000000     0.074870000000     0.912570000000     0.0396754  
H103     H      0.673480000000     0.074770000000     0.856010000000     0.0393992  
H104     H      0.672470000000     0.940380000000     0.856080000000     0.0390496  
H105     H      0.675670000000     0.940440000000     0.662690000000     0.0388781  
H106     H      0.676260000000     0.074820000000     0.662530000000     0.0387709  
H107     H      0.675060000000     0.074640000000     0.605960000000     0.038974   
H108     H      0.674830000000     0.940250000000     0.606120000000     0.0387472  
H109     H      0.803120000000     0.054170000000     0.544290000000     0.0351018  
H110     H      0.801080000000     0.959930000000     0.973040000000     0.0359617  
H111     H      0.877630000000     0.962370000000     0.970090000000     0.0351945  
H112     H      0.879830000000     0.051700000000     0.544770000000     0.0345422  
H113     H      0.940530000000     0.544490000000     0.758380000000     0.038954   
H114     H      0.074860000000     0.544730000000     0.755250000000     0.039066   
H115     H      0.074850000000     0.469130000000     0.751890000000     0.0390393  
H116     H      0.940520000000     0.468910000000     0.755000000000     0.0389314  
H117     H      0.959940000000     0.801100000000     0.722930000000     0.0356187  
H118     H      0.054240000000     0.803030000000     0.794140000000     0.0352407  
H119     H      0.051800000000     0.879750000000     0.794660000000     0.0346338  
H120     H      0.962400000000     0.877660000000     0.720020000000     0.0351626  
H121     H      0.941150000000     0.469360000000     0.503950000000     0.038892   
H122     H      0.075540000000     0.469220000000     0.003750000000     0.0382202  
H123     H      0.075560000000     0.545020000000     0.006120000000     0.0382208  
H124     H      0.941170000000     0.544890000000     0.506500000000     0.03889    
H125     H      0.074780000000     0.676160000000     0.912390000000     0.0394331  
H126     H      0.940400000000     0.675650000000     0.912550000000     0.039499   
H127     H      0.940210000000     0.674840000000     0.855980000000     0.0390174  
H128     H      0.074600000000     0.674990000000     0.855820000000     0.0392516  
H129     H      0.074730000000     0.673430000000     0.605870000000     0.0391212  
H130     H      0.940330000000     0.672500000000     0.605940000000     0.0387802  
H131     H      0.940440000000     0.673000000000     0.662490000000     0.0388966  
H132     H      0.074830000000     0.674260000000     0.662430000000     0.0389847  
H133     H      0.056960000000     0.803360000000     0.543840000000     0.0360393  
H134     H      0.955050000000     0.802060000000     0.978690000000     0.0368318  
H135     H      0.956620000000     0.878360000000     0.976470000000     0.0359914  
H136     H      0.054340000000     0.880180000000     0.545070000000     0.0362422  
H137     H      0.544900000000     0.941280000000     0.756520000000     0.0390204  
H138     H      0.545070000000     0.075670000000     0.756150000000     0.0389354  
H139     H      0.469270000000     0.075670000000     0.753650000000     0.0389425  
H140     H      0.469390000000     0.941290000000     0.753850000000     0.0390006  
H141     H      0.210860000000     0.055390000000     0.715090000000     0.0356923  
H142     H      0.212370000000     0.956340000000     0.782640000000     0.0362411  
H143     H      0.136050000000     0.957870000000     0.784850000000     0.035285   
H144     H      0.134030000000     0.052520000000     0.713900000000     0.035451   
H145     H      0.468930000000     0.940650000000     0.004930000000     0.0382164  
H146     H      0.469180000000     0.074970000000     0.501820000000     0.0389388  
H147     H      0.544790000000     0.074970000000     0.505300000000     0.038935   
H148     H      0.544490000000     0.940640000000     0.008440000000     0.0382327  
H149     H      0.342560000000     0.942520000000     0.904030000000     0.0394394  
H150     H      0.335730000000     0.076730000000     0.904220000000     0.039483   
H151     H      0.334980000000     0.076640000000     0.847400000000     0.0390893  
H152     H      0.341820000000     0.942430000000     0.847720000000     0.0390437  
H153     H      0.337170000000     0.938810000000     0.597420000000     0.0388182  
H154     H      0.343310000000     0.073070000000     0.597730000000     0.0390566  
H155     H      0.344260000000     0.072980000000     0.654030000000     0.0390998  
H156     H      0.338130000000     0.938720000000     0.654210000000     0.0388702  
H157     H      0.212080000000     0.058670000000     0.534160000000     0.0362354  
H158     H      0.210610000000     0.957110000000     0.968700000000     0.0362237  
H159     H      0.134030000000     0.958820000000     0.968290000000     0.036794   
H160     H      0.135680000000     0.056310000000     0.537100000000     0.0366392  
N1       N      0.005690000000     0.341200000000     0.408790000000    -0.181147   
N2       N      0.005800000000     0.340090000000     0.343270000000    -0.181179   
N3       N      0.009430000000     0.338340000000     0.093230000000    -0.180899   
N4       N      0.009520000000     0.339200000000     0.158810000000    -0.181      
N5       N      0.007440000000     0.129520000000     0.252940000000    -0.182424   
N6       N      0.007780000000     0.216620000000     0.251530000000    -0.182283   
N7       N      0.005230000000     0.129790000000     0.499570000000    -0.182511   
N8       N      0.005970000000     0.216870000000     0.499110000000    -0.182091   
N9       N      0.797440000000     0.006150000000     0.261320000000    -0.182072   
N10      N      0.884540000000     0.005520000000     0.260770000000    -0.182222   
N11      N      0.673760000000     0.007710000000     0.417080000000    -0.181169   
N12      N      0.672940000000     0.007540000000     0.351570000000    -0.181168   
N13      N      0.675960000000     0.007680000000     0.167110000000    -0.180963   
N14      N      0.674760000000     0.007400000000     0.101550000000    -0.180886   
N15      N      0.796920000000     0.007040000000     0.508760000000    -0.182338   
N16      N      0.883890000000     0.007050000000     0.507340000000    -0.182552   
N17      N      0.007700000000     0.550610000000     0.257100000000    -0.181056   
N18      N      0.007680000000     0.463020000000     0.253150000000    -0.18111    
N19      N      0.007080000000     0.796890000000     0.258630000000    -0.18239    
N20      N      0.007120000000     0.883860000000     0.257250000000    -0.182569   
N21      N      0.008360000000     0.463290000000     0.503640000000    -0.180906   
N22      N      0.008370000000     0.550970000000     0.506520000000    -0.180973   
N23      N      0.007640000000     0.675910000000     0.416970000000    -0.180961   
N24      N      0.007360000000     0.674730000000     0.351410000000    -0.180932   
N25      N      0.007500000000     0.672940000000     0.101430000000    -0.181141   
N26      N      0.007670000000     0.673720000000     0.166940000000    -0.1812     
N27      N      0.006190000000     0.797410000000     0.511160000000    -0.182066   
N28      N      0.005590000000     0.884510000000     0.510640000000    -0.182266   
N29      N      0.551000000000     0.008480000000     0.256550000000    -0.180961   
N30      N      0.463320000000     0.008490000000     0.253540000000    -0.180915   
N31      N      0.216900000000     0.006070000000     0.248960000000    -0.182049   
N32      N      0.129820000000     0.005280000000     0.249490000000    -0.182433   
N33      N      0.463060000000     0.007810000000     0.003070000000    -0.181088   
N34      N      0.550630000000     0.007810000000     0.007160000000    -0.18111    
N35      N      0.339270000000     0.009660000000     0.408630000000    -0.180951   
N36      N      0.338380000000     0.009560000000     0.343060000000    -0.180874   
N37      N      0.340090000000     0.005930000000     0.093090000000    -0.181057   
N38      N      0.341220000000     0.005820000000     0.158610000000    -0.181162   
N39      N      0.216650000000     0.007920000000     0.501330000000    -0.182245   
N40      N      0.129550000000     0.007510000000     0.502800000000    -0.182414   
N41      N      0.005690000000     0.341200000000     0.908790000000    -0.180734   
N42      N      0.005800000000     0.340090000000     0.843270000000    -0.181129   
N43      N      0.009430000000     0.338340000000     0.593240000000    -0.18088    
N44      N      0.009520000000     0.339200000000     0.658810000000    -0.180951   
N45      N      0.007440000000     0.129520000000     0.752940000000    -0.182412   
N46      N      0.007780000000     0.216620000000     0.751530000000    -0.182239   
N47      N      0.005230000000     0.129790000000     0.999570000000    -0.176425   
N48      N      0.005970000000     0.216870000000     0.999110000000    -0.180302   
N49      N      0.797440000000     0.006150000000     0.761320000000    -0.182029   
N50      N      0.884540000000     0.005520000000     0.760770000000    -0.182215   
N51      N      0.673760000000     0.007710000000     0.917080000000    -0.180761   
N52      N      0.672940000000     0.007540000000     0.851570000000    -0.181135   
N53      N      0.675960000000     0.007680000000     0.667110000000    -0.180943   
N54      N      0.674760000000     0.007400000000     0.601550000000    -0.180929   
N55      N      0.796920000000     0.007040000000     0.008760000000    -0.184821   
N56      N      0.883890000000     0.007050000000     0.007340000000    -0.18418    
N57      N      0.007700000000     0.550610000000     0.757100000000    -0.181014   
N58      N      0.007680000000     0.463020000000     0.753150000000    -0.181075   
N59      N      0.007080000000     0.796890000000     0.758630000000    -0.182373   
N60      N      0.007120000000     0.883860000000     0.757250000000    -0.182555   
N61      N      0.008360000000     0.463280000000     0.003640000000    -0.181036   
N62      N      0.008370000000     0.550970000000     0.006520000000    -0.181083   
N63      N      0.007640000000     0.675910000000     0.916970000000    -0.180557   
N64      N      0.007360000000     0.674730000000     0.851410000000    -0.180878   
N65      N      0.007500000000     0.672940000000     0.601430000000    -0.181177   
N66      N      0.007670000000     0.673720000000     0.666940000000    -0.181183   
N67      N      0.006190000000     0.797410000000     0.011160000000    -0.184576   
N68      N      0.005590000000     0.884510000000     0.010640000000    -0.183904   
N69      N      0.551000000000     0.008480000000     0.756550000000    -0.180923   
N70      N      0.463320000000     0.008490000000     0.753540000000    -0.180878   
N71      N      0.216900000000     0.006070000000     0.748960000000    -0.182022   
N72      N      0.129820000000     0.005280000000     0.749490000000    -0.182478   
N73      N      0.463060000000     0.007810000000     0.503070000000    -0.181024   
N74      N      0.550630000000     0.007810000000     0.507160000000    -0.181004   
N75      N      0.339270000000     0.009660000000     0.908630000000    -0.180515   
N76      N      0.338380000000     0.009560000000     0.843060000000    -0.180838   
N77      N      0.340100000000     0.005930000000     0.593090000000    -0.181119   
N78      N      0.341220000000     0.005820000000     0.658610000000    -0.18113    
N79      N      0.216650000000     0.007920000000     0.001330000000    -0.183769   
N80      N      0.129550000000     0.007510000000     0.002800000000    -0.184119   
Ni1      Ni     0.339670000000     0.045220000000     0.501520000000     1.00105    
Ni2      Ni     0.339600000000     0.970490000000     0.500270000000     1.00572    
Ni3      Ni     0.339510000000     0.045010000000     0.250150000000     0.996865   
Ni4      Ni     0.340210000000     0.970270000000     0.251450000000     1.00939    
Ni5      Ni     0.044970000000     0.674750000000     0.509510000000     0.997012   
Ni6      Ni     0.970210000000     0.674100000000     0.008960000000     1.00477    
Ni7      Ni     0.044850000000     0.674150000000     0.259440000000     1.00094    
Ni8      Ni     0.970080000000     0.673910000000     0.258840000000     1.00703    
Ni9      Ni     0.674200000000     0.044890000000     0.509580000000     1.00073    
Ni10     Ni     0.673920000000     0.970120000000     0.008980000000     1.00231    
Ni11     Ni     0.674810000000     0.045020000000     0.259650000000     0.996876   
Ni12     Ni     0.674100000000     0.970250000000     0.259100000000     1.00968    
Ni13     Ni     0.005760000000     0.004290000000     0.477250000000     0.99826    
Ni14     Ni     0.007570000000     0.010040000000     0.032920000000     0.992174   
Ni15     Ni     0.004270000000     0.005780000000     0.227270000000     0.99799    
Ni16     Ni     0.010110000000     0.007500000000     0.282940000000     0.998499   
Ni17     Ni     0.970150000000     0.340170000000     0.501630000000     1.00945    
Ni18     Ni     0.044880000000     0.339490000000     0.000330000000     0.987954   
Ni19     Ni     0.970350000000     0.339570000000     0.250450000000     1.00601    
Ni20     Ni     0.045090000000     0.339630000000     0.251690000000     1.00122    
Ni21     Ni     0.339670000000     0.045220000000     0.001520000000     0.996864   
Ni22     Ni     0.339600000000     0.970490000000     0.000270000000     0.995847   
Ni23     Ni     0.339510000000     0.045010000000     0.750150000000     0.996833   
Ni24     Ni     0.340210000000     0.970270000000     0.751450000000     1.00958    
Ni25     Ni     0.044970000000     0.674750000000     0.009510000000     0.992393   
Ni26     Ni     0.970210000000     0.674100000000     0.508960000000     1.00955    
Ni27     Ni     0.044850000000     0.674150000000     0.759440000000     1.00113    
Ni28     Ni     0.970080000000     0.673910000000     0.758840000000     1.00703    
Ni29     Ni     0.674200000000     0.044890000000     0.009580000000     0.996133   
Ni30     Ni     0.673920000000     0.970120000000     0.508980000000     1.00709    
Ni31     Ni     0.674810000000     0.045020000000     0.759650000000     0.996864   
Ni32     Ni     0.674100000000     0.970250000000     0.759100000000     1.00987    
Ni33     Ni     0.005760000000     0.004290000000     0.977250000000     1.00107    
Ni34     Ni     0.007570000000     0.010040000000     0.532920000000     0.998373   
Ni35     Ni     0.004270000000     0.005780000000     0.727270000000     0.998011   
Ni36     Ni     0.010110000000     0.007500000000     0.782940000000     0.998653   
Ni37     Ni     0.970150000000     0.340170000000     0.001630000000     1.00591    
Ni38     Ni     0.044880000000     0.339490000000     0.500330000000     0.996957   
Ni39     Ni     0.970350000000     0.339570000000     0.750440000000     1.00593    
Ni40     Ni     0.045090000000     0.339630000000     0.751700000000     1.00163    
O1       O      0.279530000000     0.042740000000     0.003270000000    -0.445497   
O2       O      0.399840000000     0.042750000000     0.500480000000    -0.44665    
O3       O      0.338080000000     0.043880000000     0.456360000000    -0.444575   
O4       O      0.341250000000     0.041600000000     0.046250000000    -0.447878   
O5       O      0.337790000000     0.971810000000     0.045380000000    -0.442554   
O6       O      0.341450000000     0.974100000000     0.455520000000    -0.44682    
O7       O      0.399750000000     0.972900000000     0.001870000000    -0.444676   
O8       O      0.279440000000     0.973050000000     0.498330000000    -0.444629   
O9       O      0.279330000000     0.041860000000     0.247290000000    -0.444297   
O10      O      0.399750000000     0.043120000000     0.252420000000    -0.444921   
O11      O      0.342420000000     0.041410000000     0.205470000000    -0.448225   
O12      O      0.336670000000     0.043660000000     0.295270000000    -0.444198   
O13      O      0.340650000000     0.973910000000     0.296210000000    -0.447227   
O14      O      0.339700000000     0.971590000000     0.206310000000    -0.443901   
O15      O      0.400300000000     0.973260000000     0.251190000000    -0.446294   
O16      O      0.280090000000     0.972170000000     0.252260000000    -0.446093   
O17      O      0.042520000000     0.677310000000     0.464410000000    -0.444649   
O18      O      0.042460000000     0.672130000000     0.054270000000    -0.446813   
O19      O      0.043010000000     0.614520000000     0.507440000000    -0.445283   
O20      O      0.041950000000     0.734930000000     0.012220000000    -0.444815   
O21      O      0.972140000000     0.734240000000     0.508350000000    -0.445966   
O22      O      0.973170000000     0.614000000000     0.008970000000    -0.44651    
O23      O      0.972610000000     0.674250000000     0.054040000000    -0.444106   
O24      O      0.972720000000     0.673990000000     0.464140000000    -0.446771   
O25      O      0.042480000000     0.675770000000     0.214360000000    -0.445748   
O26      O      0.042290000000     0.672540000000     0.304240000000    -0.447685   
O27      O      0.042550000000     0.613980000000     0.258000000000    -0.446697   
O28      O      0.042170000000     0.734310000000     0.261340000000    -0.446036   
O29      O      0.972380000000     0.734040000000     0.257040000000    -0.445172   
O30      O      0.972720000000     0.613770000000     0.259820000000    -0.445752   
O31      O      0.972470000000     0.675420000000     0.303960000000    -0.443807   
O32      O      0.972680000000     0.672440000000     0.214070000000    -0.446956   
O33      O      0.675830000000     0.042520000000     0.464500000000    -0.445673   
O34      O      0.672580000000     0.042330000000     0.054380000000    -0.446925   
O35      O      0.734360000000     0.042180000000     0.511490000000    -0.445841   
O36      O      0.614020000000     0.042630000000     0.008130000000    -0.446622   
O37      O      0.613780000000     0.972790000000     0.509950000000    -0.44561    
O38      O      0.734050000000     0.972380000000     0.007190000000    -0.44612    
O39      O      0.675410000000     0.972510000000     0.054100000000    -0.443145   
O40      O      0.672460000000     0.972720000000     0.464210000000    -0.446925   
O41      O      0.677390000000     0.042560000000     0.214550000000    -0.444661   
O42      O      0.672160000000     0.042510000000     0.304400000000    -0.447482   
O43      O      0.734990000000     0.041950000000     0.262390000000    -0.444445   
O44      O      0.614560000000     0.043090000000     0.257550000000    -0.445159   
O45      O      0.614010000000     0.973250000000     0.259090000000    -0.446473   
O46      O      0.734250000000     0.972140000000     0.258510000000    -0.44594    
O47      O      0.674240000000     0.972660000000     0.304180000000    -0.444861   
O48      O      0.674030000000     0.972760000000     0.214280000000    -0.44683    
O49      O      0.065900000000     0.000440000000     0.478330000000    -0.446474   
O50      O      0.945720000000     0.006820000000     0.480030000000    -0.444409   
O51      O      0.009750000000     0.064840000000     0.476250000000    -0.442926   
O52      O      0.001740000000     0.944920000000     0.482110000000    -0.447443   
O53      O      0.011670000000     0.949480000000     0.033770000000    -0.439599   
O54      O      0.003150000000     0.069410000000     0.028210000000    -0.446514   
O55      O      0.947420000000     0.007440000000     0.032370000000    -0.442997   
O56      O      0.067540000000     0.013990000000     0.029610000000    -0.444507   
O57      O      0.064830000000     0.009800000000     0.226220000000    -0.442794   
O58      O      0.944910000000     0.001720000000     0.232180000000    -0.447376   
O59      O      0.000390000000     0.065910000000     0.228410000000    -0.446623   
O60      O      0.006840000000     0.945730000000     0.230000000000    -0.444414   
O61      O      0.007530000000     0.947350000000     0.282340000000    -0.444514   
O62      O      0.014020000000     0.067480000000     0.279680000000    -0.446019   
O63      O      0.949550000000     0.011570000000     0.283850000000    -0.44097    
O64      O      0.069470000000     0.003120000000     0.278180000000    -0.44891    
O65      O      0.971470000000     0.339650000000     0.456490000000    -0.443958   
O66      O      0.973790000000     0.340610000000     0.046380000000    -0.446822   
O67      O      0.973130000000     0.400260000000     0.501360000000    -0.446402   
O68      O      0.972060000000     0.280040000000     0.002440000000    -0.45031    
O69      O      0.041750000000     0.279310000000     0.497470000000    -0.444272   
O70      O      0.042980000000     0.399720000000     0.002590000000    -0.444634   
O71      O      0.043540000000     0.336650000000     0.045450000000    -0.443351   
O72      O      0.041280000000     0.342390000000     0.455650000000    -0.448233   
O73      O      0.973960000000     0.341380000000     0.205700000000    -0.446859   
O74      O      0.971680000000     0.337780000000     0.295550000000    -0.443759   
O75      O      0.972760000000     0.399720000000     0.252020000000    -0.445322   
O76      O      0.972910000000     0.279410000000     0.248530000000    -0.444615   
O77      O      0.042600000000     0.279500000000     0.253460000000    -0.446718   
O78      O      0.042610000000     0.399800000000     0.250630000000    -0.446773   
O79      O      0.041460000000     0.341240000000     0.296430000000    -0.448505   
O80      O      0.043740000000     0.338020000000     0.206540000000    -0.444847   
O81      O      0.279530000000     0.042740000000     0.503270000000    -0.446488   
O82      O      0.399840000000     0.042750000000     0.000480000000    -0.446817   
O83      O      0.338080000000     0.043880000000     0.956370000000    -0.440678   
O84      O      0.341250000000     0.041600000000     0.546250000000    -0.448555   
O85      O      0.337790000000     0.971810000000     0.545380000000    -0.443559   
O86      O      0.341450000000     0.974100000000     0.955520000000    -0.442504   
O87      O      0.399750000000     0.972900000000     0.501870000000    -0.445318   
O88      O      0.279440000000     0.973050000000     0.998330000000    -0.436315   
O89      O      0.279330000000     0.041860000000     0.747290000000    -0.444222   
O90      O      0.399750000000     0.043120000000     0.752420000000    -0.444811   
O91      O      0.342420000000     0.041410000000     0.705470000000    -0.448154   
O92      O      0.336670000000     0.043660000000     0.795280000000    -0.444022   
O93      O      0.340650000000     0.973910000000     0.796210000000    -0.447154   
O94      O      0.339700000000     0.971590000000     0.706310000000    -0.443857   
O95      O      0.400300000000     0.973260000000     0.751190000000    -0.446215   
O96      O      0.280090000000     0.972170000000     0.752260000000    -0.446029   
O97      O      0.042520000000     0.677310000000     0.964410000000    -0.44064    
O98      O      0.042460000000     0.672130000000     0.554270000000    -0.447513   
O99      O      0.043010000000     0.614520000000     0.007440000000    -0.445528   
O100     O      0.041950000000     0.734930000000     0.512230000000    -0.444417   
O101     O      0.972140000000     0.734240000000     0.008350000000    -0.446981   
O102     O      0.973170000000     0.614000000000     0.508970000000    -0.446332   
O103     O      0.972610000000     0.674250000000     0.554040000000    -0.444775   
O104     O      0.972720000000     0.673990000000     0.964140000000    -0.442803   
O105     O      0.042480000000     0.675770000000     0.714360000000    -0.445718   
O106     O      0.042290000000     0.672540000000     0.804240000000    -0.447558   
O107     O      0.042550000000     0.613980000000     0.758000000000    -0.446604   
O108     O      0.042170000000     0.734310000000     0.761340000000    -0.445995   
O109     O      0.972380000000     0.734050000000     0.757040000000    -0.445071   
O110     O      0.972720000000     0.613770000000     0.759830000000    -0.445624   
O111     O      0.972470000000     0.675420000000     0.803960000000    -0.443661   
O112     O      0.972680000000     0.672440000000     0.714070000000    -0.446916   
O113     O      0.675830000000     0.042520000000     0.964500000000    -0.441657   
O114     O      0.672580000000     0.042330000000     0.554380000000    -0.44765    
O115     O      0.734360000000     0.042180000000     0.011490000000    -0.446189   
O116     O      0.614020000000     0.042630000000     0.508130000000    -0.446393   
O117     O      0.613780000000     0.972790000000     0.009950000000    -0.445775   
O118     O      0.734050000000     0.972380000000     0.507190000000    -0.445126   
O119     O      0.675410000000     0.972510000000     0.554100000000    -0.443821   
O120     O      0.672460000000     0.972720000000     0.964210000000    -0.44295    
O121     O      0.677390000000     0.042560000000     0.714550000000    -0.444575   
O122     O      0.672160000000     0.042510000000     0.804410000000    -0.447311   
O123     O      0.734990000000     0.041950000000     0.762380000000    -0.444384   
O124     O      0.614560000000     0.043090000000     0.757550000000    -0.445052   
O125     O      0.614010000000     0.973250000000     0.759090000000    -0.446386   
O126     O      0.734250000000     0.972140000000     0.758510000000    -0.445877   
O127     O      0.674240000000     0.972660000000     0.804180000000    -0.444789   
O128     O      0.674030000000     0.972760000000     0.714280000000    -0.446782   
O129     O      0.065900000000     0.000440000000     0.978330000000    -0.442096   
O130     O      0.945720000000     0.006820000000     0.980030000000    -0.440006   
O131     O      0.009750000000     0.064840000000     0.976250000000    -0.437568   
O132     O      0.001740000000     0.944920000000     0.982110000000    -0.443113   
O133     O      0.011670000000     0.949480000000     0.533770000000    -0.441099   
O134     O      0.003150000000     0.069410000000     0.528210000000    -0.449003   
O135     O      0.947420000000     0.007440000000     0.532370000000    -0.444524   
O136     O      0.067540000000     0.014000000000     0.529610000000    -0.445997   
O137     O      0.064830000000     0.009800000000     0.726220000000    -0.442837   
O138     O      0.944910000000     0.001720000000     0.732180000000    -0.447361   
O139     O      0.000390000000     0.065910000000     0.728410000000    -0.446602   
O140     O      0.006840000000     0.945730000000     0.730000000000    -0.44439    
O141     O      0.007530000000     0.947350000000     0.782340000000    -0.444472   
O142     O      0.014020000000     0.067480000000     0.779680000000    -0.445967   
O143     O      0.949550000000     0.011570000000     0.783850000000    -0.440921   
O144     O      0.069470000000     0.003120000000     0.778170000000    -0.449036   
O145     O      0.971470000000     0.339650000000     0.956490000000    -0.440217   
O146     O      0.973790000000     0.340610000000     0.546380000000    -0.447345   
O147     O      0.973130000000     0.400260000000     0.001360000000    -0.446733   
O148     O      0.972060000000     0.280040000000     0.502440000000    -0.446032   
O149     O      0.041750000000     0.279310000000     0.997470000000    -0.441256   
O150     O      0.042980000000     0.399720000000     0.502590000000    -0.445085   
O151     O      0.043540000000     0.336650000000     0.545450000000    -0.44411    
O152     O      0.041280000000     0.342390000000     0.955650000000    -0.444093   
O153     O      0.973960000000     0.341380000000     0.705700000000    -0.446892   
O154     O      0.971680000000     0.337780000000     0.795560000000    -0.443456   
O155     O      0.972760000000     0.399720000000     0.752020000000    -0.445211   
O156     O      0.972910000000     0.279410000000     0.748530000000    -0.44454    
O157     O      0.042600000000     0.279500000000     0.753460000000    -0.446694   
O158     O      0.042610000000     0.399800000000     0.750630000000    -0.446716   
O159     O      0.041460000000     0.341240000000     0.796420000000    -0.44861    
O160     O      0.043740000000     0.338020000000     0.706540000000    -0.44473    


