data_structure

_audit_creation_method RASPA-1.0
_audit_creation_date 2023-5-23
_audit_author_name 'Poobodin Mano'

_cell_length_a    42.5857
_cell_length_b    42.5857
_cell_length_c    42.3675
_cell_angle_alpha 90
_cell_angle_beta  89.997
_cell_angle_gamma 90
_cell_volume      76835.2

_symmetry_cell_setting          triclinic
_symmetry_space_group_name_Hall 'P 1'
_symmetry_space_group_name_H-M  'P 1'
_symmetry_Int_Tables_number     1

_symmetry_equiv_pos_as_xyz 'x,y,z'

loop_
_atom_site_label
_atom_site_type_symbol
_atom_site_fract_x
_atom_site_fract_y
_atom_site_fract_z
_atom_site_charge
C1       C      0.505240000000     0.005240000000     0.317950000000     0.433207   
C2       C      0.505240000000     0.505240000000     0.197690000000     0.433966   
C3       C      0.005250000000     0.065240000000     0.257820000000     0.423772   
C4       C      0.005240000000     0.445240000000     0.257820000000     0.424122   
C5       C      0.505240000000     0.255240000000     0.317930000000     0.433817   
C6       C      0.505240000000     0.255240000000     0.197670000000     0.433938   
C7       C      0.005230000000     0.315240000000     0.257810000000     0.424155   
C8       C      0.005250000000     0.195240000000     0.257800000000     0.424019   
C9       C      0.255240000000     0.005230000000     0.197740000000     0.43314    
C10      C      0.255240000000     0.005230000000     0.318010000000     0.433166   
C11      C      0.256290000000     0.065220000000     0.257890000000     0.431527   
C12      C      0.254190000000     0.445240000000     0.257900000000     0.431721   
C13      C      0.255240000000     0.255230000000     0.318030000000     0.435117   
C14      C      0.255230000000     0.255240000000     0.197670000000     0.43529    
C15      C      0.256460000000     0.195200000000     0.257870000000     0.432342   
C16      C      0.254010000000     0.315260000000     0.257880000000     0.432352   
C17      C      0.505240000000     0.005230000000     0.447690000000     0.426647   
C18      C      0.505240000000     0.005230000000     0.067950000000     0.425848   
C19      C      0.445240000000     0.505230000000     0.507830000000     0.431551   
C20      C      0.065240000000     0.505240000000     0.507820000000     0.431108   
C21      C      0.505240000000     0.255240000000     0.447650000000     0.434076   
C22      C      0.505240000000     0.255240000000     0.067930000000     0.433838   
C23      C      0.445250000000     0.254190000000     0.507770000000     0.431901   
C24      C      0.065220000000     0.256290000000     0.507760000000     0.431468   
C25      C      0.255240000000     0.005230000000     0.067990000000     0.42598    
C26      C      0.255250000000     0.005230000000     0.447730000000     0.426228   
C27      C      0.315240000000     0.505220000000     0.007860000000     0.430764   
C28      C      0.195240000000     0.505240000000     0.007850000000     0.43035    
C29      C      0.255240000000     0.255230000000     0.447650000000     0.434975   
C30      C      0.255230000000     0.255240000000     0.068020000000     0.434452   
C31      C      0.195200000000     0.256460000000     0.507800000000     0.432276   
C32      C      0.315270000000     0.254010000000     0.507810000000     0.432313   
C33      C      0.363860000000     0.226030000000     0.009040000000     0.030714   
C34      C      0.363880000000     0.281350000000     0.506410000000     0.0310372  
C35      C      0.396580000000     0.281430000000     0.506300000000     0.0311536  
C36      C      0.396730000000     0.226120000000     0.009160000000     0.0305969  
C37      C      0.113740000000     0.284350000000     0.509150000000     0.031285   
C38      C      0.113890000000     0.229050000000     0.006290000000     0.0304304  
C39      C      0.146600000000     0.229130000000     0.006400000000     0.0303472  
C40      C      0.146610000000     0.284450000000     0.509030000000     0.0312683  
C41      C      0.396640000000     0.477660000000     0.005150000000     0.0304558  
C42      C      0.396640000000     0.032780000000     0.510530000000     0.030172   
C43      C      0.363840000000     0.032780000000     0.510540000000     0.0302091  
C44      C      0.363840000000     0.477660000000     0.005150000000     0.030439   
C45      C      0.113850000000     0.032800000000     0.505140000000     0.0300123  
C46      C      0.113840000000     0.477680000000     0.010520000000     0.0304822  
C47      C      0.146640000000     0.477680000000     0.010530000000     0.0305094  
C48      C      0.146640000000     0.032800000000     0.505150000000     0.0300757  
C49      C      0.235010000000     0.236230000000     0.149310000000     0.0337683  
C50      C      0.275450000000     0.274250000000     0.149310000000     0.0337559  
C51      C      0.274240000000     0.275460000000     0.116380000000     0.0336857  
C52      C      0.236220000000     0.235020000000     0.116380000000     0.0336733  
C53      C      0.236230000000     0.235000000000     0.399310000000     0.0336379  
C54      C      0.274250000000     0.275460000000     0.399300000000     0.0336994  
C55      C      0.275470000000     0.274240000000     0.366380000000     0.0336839  
C56      C      0.235020000000     0.236220000000     0.366380000000     0.0337745  
C57      C      0.235120000000     0.024340000000     0.149330000000     0.0327411  
C58      C      0.275350000000     0.486110000000     0.149330000000     0.0334228  
C59      C      0.274190000000     0.484960000000     0.116400000000     0.0334134  
C60      C      0.236280000000     0.025490000000     0.116400000000     0.0322211  
C61      C      0.234860000000     0.986400000000     0.366410000000     0.0385832  
C62      C      0.275620000000     0.524070000000     0.366410000000     0.0334104  
C63      C      0.274470000000     0.525240000000     0.399330000000     0.0333853  
C64      C      0.236020000000     0.985220000000     0.399330000000     0.0377807  
C65      C      0.281430000000     0.396580000000     0.259380000000     0.0311169  
C66      C      0.226120000000     0.396720000000     0.256520000000     0.031321   
C67      C      0.226030000000     0.363850000000     0.256650000000     0.0313549  
C68      C      0.281350000000     0.363870000000     0.259280000000     0.0310878  
C69      C      0.284350000000     0.113740000000     0.256510000000     0.0312586  
C70      C      0.229040000000     0.113880000000     0.259370000000     0.0310112  
C71      C      0.229130000000     0.146590000000     0.259270000000     0.0310671  
C72      C      0.284450000000     0.146610000000     0.256630000000     0.0313262  
C73      C      0.484980000000     0.274200000000     0.149260000000     0.0334827  
C74      C      0.025510000000     0.236290000000     0.149260000000     0.0322291  
C75      C      0.024350000000     0.235130000000     0.116330000000     0.0327442  
C76      C      0.486120000000     0.275360000000     0.116340000000     0.0333593  
C77      C      0.985230000000     0.236020000000     0.366330000000     0.0377928  
C78      C      0.525250000000     0.274470000000     0.366330000000     0.0333297  
C79      C      0.524070000000     0.275620000000     0.399250000000     0.0334906  
C80      C      0.986410000000     0.234860000000     0.399250000000     0.0385788  
C81      C      0.025440000000     0.524270000000     0.149280000000     0.0322871  
C82      C      0.485050000000     0.986200000000     0.149290000000     0.0385782  
C83      C      0.486210000000     0.985040000000     0.116360000000     0.0377769  
C84      C      0.024280000000     0.525430000000     0.116360000000     0.0325292  
C85      C      0.025430000000     0.486210000000     0.366360000000     0.0322127  
C86      C      0.485050000000     0.024270000000     0.366360000000     0.0326088  
C87      C      0.486210000000     0.025430000000     0.399290000000     0.0322683  
C88      C      0.024270000000     0.485050000000     0.399280000000     0.0326449  
C89      C      0.532790000000     0.396640000000     0.255120000000     0.0311883  
C90      C      0.977670000000     0.396640000000     0.260510000000     0.0355517  
C91      C      0.977670000000     0.363850000000     0.260510000000     0.035594   
C92      C      0.532790000000     0.363850000000     0.255120000000     0.0311862  
C93      C      0.477690000000     0.113850000000     0.255120000000     0.0311215  
C94      C      0.032810000000     0.113850000000     0.260500000000     0.0300376  
C95      C      0.032810000000     0.146640000000     0.260500000000     0.0300999  
C96      C      0.477690000000     0.146640000000     0.255120000000     0.0311417  
C97      C      0.505240000000     0.005240000000     0.817950000000     0.433278   
C98      C      0.505240000000     0.505240000000     0.697690000000     0.434194   
C99      C      0.005250000000     0.065240000000     0.757820000000     0.423793   
C100     C      0.005240000000     0.445240000000     0.757820000000     0.424142   
C101     C      0.505240000000     0.255240000000     0.817930000000     0.43418    
C102     C      0.505240000000     0.255240000000     0.697670000000     0.433942   
C103     C      0.005230000000     0.315240000000     0.757810000000     0.424203   
C104     C      0.005250000000     0.195240000000     0.757800000000     0.424075   
C105     C      0.255230000000     0.005230000000     0.697740000000     0.433105   
C106     C      0.255240000000     0.005230000000     0.818010000000     0.433298   
C107     C      0.256290000000     0.065220000000     0.757890000000     0.431531   
C108     C      0.254190000000     0.445240000000     0.757900000000     0.431724   
C109     C      0.255240000000     0.255230000000     0.818030000000     0.435111   
C110     C      0.255230000000     0.255240000000     0.697670000000     0.435259   
C111     C      0.256460000000     0.195200000000     0.757880000000     0.432375   
C112     C      0.254010000000     0.315260000000     0.757880000000     0.432384   
C113     C      0.505240000000     0.005230000000     0.947690000000     0.425921   
C114     C      0.505240000000     0.005230000000     0.567950000000     0.426322   
C115     C      0.445240000000     0.505230000000     0.007830000000     0.43047    
C116     C      0.065240000000     0.505240000000     0.007820000000     0.429997   
C117     C      0.505240000000     0.255240000000     0.947650000000     0.433388   
C118     C      0.505240000000     0.255240000000     0.567930000000     0.434342   
C119     C      0.445250000000     0.254190000000     0.007770000000     0.430936   
C120     C      0.065230000000     0.256290000000     0.007770000000     0.430258   
C121     C      0.255240000000     0.005230000000     0.567990000000     0.426335   
C122     C      0.255250000000     0.005230000000     0.947730000000     0.425561   
C123     C      0.315240000000     0.505220000000     0.507860000000     0.431882   
C124     C      0.195240000000     0.505240000000     0.507850000000     0.43144    
C125     C      0.255240000000     0.255230000000     0.947660000000     0.434278   
C126     C      0.255230000000     0.255240000000     0.568020000000     0.434949   
C127     C      0.195200000000     0.256460000000     0.007800000000     0.431161   
C128     C      0.315270000000     0.254010000000     0.007810000000     0.431203   
C129     C      0.363860000000     0.226030000000     0.509040000000     0.0313559  
C130     C      0.363880000000     0.281350000000     0.006410000000     0.0303792  
C131     C      0.396580000000     0.281430000000     0.006300000000     0.0304948  
C132     C      0.396730000000     0.226120000000     0.509160000000     0.0312458  
C133     C      0.113740000000     0.284350000000     0.009150000000     0.0306526  
C134     C      0.113890000000     0.229050000000     0.506300000000     0.0310742  
C135     C      0.146600000000     0.229130000000     0.506400000000     0.0310079  
C136     C      0.146610000000     0.284450000000     0.009030000000     0.0306224  
C137     C      0.396640000000     0.477660000000     0.505150000000     0.0311165  
C138     C      0.396640000000     0.032780000000     0.010530000000     0.0295394  
C139     C      0.363840000000     0.032780000000     0.010540000000     0.0295762  
C140     C      0.363840000000     0.477660000000     0.505150000000     0.031104   
C141     C      0.113850000000     0.032800000000     0.005140000000     0.029354   
C142     C      0.113840000000     0.477680000000     0.510520000000     0.0311166  
C143     C      0.146640000000     0.477680000000     0.510530000000     0.0311489  
C144     C      0.146640000000     0.032800000000     0.005150000000     0.0294197  
C145     C      0.235010000000     0.236230000000     0.649310000000     0.0337271  
C146     C      0.275450000000     0.274250000000     0.649310000000     0.0337138  
C147     C      0.274240000000     0.275460000000     0.616380000000     0.0336938  
C148     C      0.236220000000     0.235020000000     0.616380000000     0.0336811  
C149     C      0.236230000000     0.235000000000     0.899310000000     0.034161   
C150     C      0.274250000000     0.275460000000     0.899300000000     0.0342203  
C151     C      0.275470000000     0.274240000000     0.866380000000     0.0341374  
C152     C      0.235020000000     0.236220000000     0.866380000000     0.0342271  
C153     C      0.235120000000     0.024340000000     0.649330000000     0.0326863  
C154     C      0.275350000000     0.486110000000     0.649330000000     0.0333895  
C155     C      0.274190000000     0.484960000000     0.616400000000     0.0334194  
C156     C      0.236280000000     0.025490000000     0.616400000000     0.0322349  
C157     C      0.234860000000     0.986400000000     0.866410000000     0.0390155  
C158     C      0.275620000000     0.524070000000     0.866400000000     0.0338868  
C159     C      0.274470000000     0.525240000000     0.899330000000     0.0339341  
C160     C      0.236020000000     0.985220000000     0.899340000000     0.0383512  
C161     C      0.281430000000     0.396580000000     0.759380000000     0.031198   
C162     C      0.226120000000     0.396720000000     0.756530000000     0.0313984  
C163     C      0.226030000000     0.363850000000     0.756650000000     0.0314318  
C164     C      0.281350000000     0.363870000000     0.759280000000     0.0311665  
C165     C      0.284350000000     0.113740000000     0.756510000000     0.0313312  
C166     C      0.229040000000     0.113880000000     0.759370000000     0.031093   
C167     C      0.229130000000     0.146590000000     0.759270000000     0.0311454  
C168     C      0.284450000000     0.146610000000     0.756630000000     0.0314064  
C169     C      0.484980000000     0.274200000000     0.649260000000     0.033444   
C170     C      0.025510000000     0.236290000000     0.649260000000     0.0321832  
C171     C      0.024350000000     0.235130000000     0.616330000000     0.0327584  
C172     C      0.486120000000     0.275360000000     0.616340000000     0.0333648  
C173     C      0.985230000000     0.236020000000     0.866330000000     0.0382009  
C174     C      0.525250000000     0.274470000000     0.866330000000     0.0337776  
C175     C      0.524070000000     0.275620000000     0.899260000000     0.0340695  
C176     C      0.986410000000     0.234860000000     0.899260000000     0.0391354  
C177     C      0.025440000000     0.524270000000     0.649280000000     0.0322391  
C178     C      0.485050000000     0.986200000000     0.649290000000     0.0385485  
C179     C      0.486210000000     0.985040000000     0.616360000000     0.0377808  
C180     C      0.024280000000     0.525430000000     0.616360000000     0.0325428  
C181     C      0.025430000000     0.486210000000     0.866350000000     0.0327     
C182     C      0.485050000000     0.024270000000     0.866360000000     0.0330707  
C183     C      0.486210000000     0.025430000000     0.899290000000     0.0328151  
C184     C      0.024270000000     0.485050000000     0.899280000000     0.0331922  
C185     C      0.532790000000     0.396640000000     0.755120000000     0.0313365  
C186     C      0.977670000000     0.396640000000     0.760510000000     0.0356131  
C187     C      0.977670000000     0.363850000000     0.760500000000     0.0356722  
C188     C      0.532790000000     0.363850000000     0.755120000000     0.0312245  
C189     C      0.477690000000     0.113850000000     0.755120000000     0.031195   
C190     C      0.032810000000     0.113850000000     0.760500000000     0.0301205  
C191     C      0.032810000000     0.146640000000     0.760500000000     0.0301849  
C192     C      0.477690000000     0.146640000000     0.755120000000     0.0312109  
C193     C      0.505240000000     0.505240000000     0.317950000000     0.433893   
C194     C      0.505240000000     0.005240000000     0.197690000000     0.433011   
C195     C      0.005250000000     0.565240000000     0.257820000000     0.42413    
C196     C      0.005240000000     0.945240000000     0.257820000000     0.423324   
C197     C      0.505240000000     0.755240000000     0.317930000000     0.433825   
C198     C      0.505240000000     0.755240000000     0.197670000000     0.433938   
C199     C      0.005230000000     0.815240000000     0.257810000000     0.424211   
C200     C      0.005250000000     0.695240000000     0.257800000000     0.424008   
C201     C      0.255240000000     0.505230000000     0.197740000000     0.434088   
C202     C      0.255240000000     0.505230000000     0.318010000000     0.434112   
C203     C      0.256290000000     0.565220000000     0.257890000000     0.431963   
C204     C      0.254190000000     0.945240000000     0.257900000000     0.430879   
C205     C      0.255240000000     0.755230000000     0.318030000000     0.435128   
C206     C      0.255230000000     0.755230000000     0.197670000000     0.435277   
C207     C      0.256460000000     0.695200000000     0.257880000000     0.432329   
C208     C      0.254010000000     0.815260000000     0.257880000000     0.432401   
C209     C      0.505240000000     0.505240000000     0.447690000000     0.434153   
C210     C      0.505240000000     0.505230000000     0.067950000000     0.433354   
C211     C      0.445240000000     0.005230000000     0.507830000000     0.424109   
C212     C      0.065240000000     0.005240000000     0.507820000000     0.423652   
C213     C      0.505240000000     0.755240000000     0.447650000000     0.433724   
C214     C      0.505240000000     0.755240000000     0.067930000000     0.433555   
C215     C      0.445250000000     0.754190000000     0.507770000000     0.431618   
C216     C      0.065220000000     0.756290000000     0.507760000000     0.431453   
C217     C      0.255240000000     0.505230000000     0.067990000000     0.433458   
C218     C      0.255240000000     0.505230000000     0.447730000000     0.433724   
C219     C      0.315240000000     0.005220000000     0.007860000000     0.423081   
C220     C      0.195240000000     0.005240000000     0.007850000000     0.422937   
C221     C      0.255240000000     0.755230000000     0.447650000000     0.434962   
C222     C      0.255230000000     0.755240000000     0.068020000000     0.434439   
C223     C      0.195200000000     0.756460000000     0.507800000000     0.432263   
C224     C      0.315270000000     0.754010000000     0.507810000000     0.432296   
C225     C      0.363860000000     0.726030000000     0.009040000000     0.0306807  
C226     C      0.363880000000     0.781350000000     0.506410000000     0.031087   
C227     C      0.396580000000     0.781430000000     0.506300000000     0.031077   
C228     C      0.396730000000     0.726120000000     0.009160000000     0.0306541  
C229     C      0.113740000000     0.784350000000     0.509150000000     0.031302   
C230     C      0.113890000000     0.729050000000     0.006290000000     0.0304234  
C231     C      0.146600000000     0.729130000000     0.006400000000     0.0303412  
C232     C      0.146610000000     0.784450000000     0.509030000000     0.0312876  
C233     C      0.396640000000     0.977660000000     0.005150000000     0.0349301  
C234     C      0.396640000000     0.532780000000     0.510530000000     0.0311573  
C235     C      0.363840000000     0.532780000000     0.510540000000     0.0312103  
C236     C      0.363840000000     0.977660000000     0.005150000000     0.0348944  
C237     C      0.113850000000     0.532800000000     0.505140000000     0.0310028  
C238     C      0.113840000000     0.977680000000     0.010520000000     0.0349408  
C239     C      0.146640000000     0.977680000000     0.010530000000     0.0349782  
C240     C      0.146640000000     0.532800000000     0.505150000000     0.0310628  
C241     C      0.235010000000     0.736230000000     0.149310000000     0.033765   
C242     C      0.275450000000     0.774250000000     0.149310000000     0.0337925  
C243     C      0.274240000000     0.775460000000     0.116380000000     0.0337102  
C244     C      0.236220000000     0.735020000000     0.116380000000     0.0336848  
C245     C      0.236230000000     0.735010000000     0.399310000000     0.0337149  
C246     C      0.274250000000     0.775460000000     0.399300000000     0.0337285  
C247     C      0.275470000000     0.774240000000     0.366380000000     0.0336976  
C248     C      0.235020000000     0.736220000000     0.366380000000     0.0337409  
C249     C      0.235120000000     0.524340000000     0.149330000000     0.0335236  
C250     C      0.275350000000     0.986110000000     0.149330000000     0.038564   
C251     C      0.274190000000     0.984960000000     0.116400000000     0.0377625  
C252     C      0.236280000000     0.525490000000     0.116400000000     0.0333757  
C253     C      0.234860000000     0.486400000000     0.366410000000     0.0334406  
C254     C      0.275620000000     0.024070000000     0.366410000000     0.0326103  
C255     C      0.274470000000     0.025240000000     0.399330000000     0.0322235  
C256     C      0.236020000000     0.485220000000     0.399330000000     0.0334107  
C257     C      0.281430000000     0.896580000000     0.259380000000     0.0313429  
C258     C      0.226120000000     0.896720000000     0.256520000000     0.0315546  
C259     C      0.226030000000     0.863860000000     0.256650000000     0.0315129  
C260     C      0.281350000000     0.863870000000     0.259280000000     0.0312729  
C261     C      0.284350000000     0.613740000000     0.256510000000     0.0313142  
C262     C      0.229040000000     0.613880000000     0.259370000000     0.0310658  
C263     C      0.229130000000     0.646590000000     0.259270000000     0.0310818  
C264     C      0.284450000000     0.646610000000     0.256630000000     0.0313434  
C265     C      0.484980000000     0.774200000000     0.149260000000     0.033508   
C266     C      0.025510000000     0.736290000000     0.149260000000     0.0322462  
C267     C      0.024350000000     0.735130000000     0.116330000000     0.0327394  
C268     C      0.486120000000     0.775360000000     0.116340000000     0.0333812  
C269     C      0.985230000000     0.736010000000     0.366330000000     0.0377213  
C270     C      0.525250000000     0.774460000000     0.366330000000     0.0334419  
C271     C      0.524070000000     0.775620000000     0.399250000000     0.0334558  
C272     C      0.986410000000     0.734860000000     0.399250000000     0.0386149  
C273     C      0.025440000000     0.024270000000     0.149280000000     0.0315082  
C274     C      0.485050000000     0.486200000000     0.149290000000     0.0334401  
C275     C      0.486210000000     0.485040000000     0.116360000000     0.0334172  
C276     C      0.024280000000     0.025430000000     0.116360000000     0.031381   
C277     C      0.025430000000     0.986210000000     0.366360000000     0.0373985  
C278     C      0.485050000000     0.524270000000     0.366360000000     0.0333811  
C279     C      0.486210000000     0.525430000000     0.399290000000     0.0334256  
C280     C      0.024270000000     0.985040000000     0.399280000000     0.0369024  
C281     C      0.532790000000     0.896640000000     0.255120000000     0.0314117  
C282     C      0.977670000000     0.896640000000     0.260510000000     0.0357562  
C283     C      0.977670000000     0.863840000000     0.260510000000     0.0358115  
C284     C      0.532790000000     0.863850000000     0.255120000000     0.0313772  
C285     C      0.477690000000     0.613840000000     0.255120000000     0.0311901  
C286     C      0.032810000000     0.613840000000     0.260500000000     0.030127   
C287     C      0.032810000000     0.646640000000     0.260500000000     0.0301071  
C288     C      0.477690000000     0.646640000000     0.255120000000     0.0311827  
C289     C      0.505240000000     0.505240000000     0.817950000000     0.43423    
C290     C      0.505240000000     0.005240000000     0.697690000000     0.433239   
C291     C      0.005250000000     0.565240000000     0.757820000000     0.424151   
C292     C      0.005240000000     0.945240000000     0.757820000000     0.423344   
C293     C      0.505240000000     0.755240000000     0.817930000000     0.434187   
C294     C      0.505240000000     0.755240000000     0.697670000000     0.433942   
C295     C      0.005230000000     0.815240000000     0.757810000000     0.424259   
C296     C      0.005250000000     0.695240000000     0.757800000000     0.424064   
C297     C      0.255230000000     0.505230000000     0.697740000000     0.434052   
C298     C      0.255240000000     0.505230000000     0.818010000000     0.434246   
C299     C      0.256290000000     0.565220000000     0.757890000000     0.431966   
C300     C      0.254190000000     0.945240000000     0.757900000000     0.430909   
C301     C      0.255240000000     0.755230000000     0.818030000000     0.435125   
C302     C      0.255230000000     0.755230000000     0.697670000000     0.435243   
C303     C      0.256460000000     0.695200000000     0.757880000000     0.432362   
C304     C      0.254010000000     0.815260000000     0.757880000000     0.432434   
C305     C      0.505240000000     0.505240000000     0.947690000000     0.433433   
C306     C      0.505240000000     0.505230000000     0.567950000000     0.433817   
C307     C      0.445240000000     0.005230000000     0.007830000000     0.423023   
C308     C      0.065240000000     0.005240000000     0.007820000000     0.422566   
C309     C      0.505240000000     0.755240000000     0.947650000000     0.433366   
C310     C      0.505240000000     0.755240000000     0.567930000000     0.434062   
C311     C      0.445250000000     0.754190000000     0.007770000000     0.430649   
C312     C      0.065230000000     0.756290000000     0.007770000000     0.430235   
C313     C      0.255240000000     0.505230000000     0.567990000000     0.433831   
C314     C      0.255240000000     0.505230000000     0.947730000000     0.433033   
C315     C      0.315240000000     0.005220000000     0.507860000000     0.424174   
C316     C      0.195240000000     0.005240000000     0.507850000000     0.424002   
C317     C      0.255240000000     0.755230000000     0.947660000000     0.434266   
C318     C      0.255230000000     0.755240000000     0.568020000000     0.434936   
C319     C      0.195200000000     0.756460000000     0.007800000000     0.431148   
C320     C      0.315270000000     0.754010000000     0.007810000000     0.431185   
C321     C      0.363860000000     0.726030000000     0.509040000000     0.031325   
C322     C      0.363880000000     0.781350000000     0.006410000000     0.0304289  
C323     C      0.396580000000     0.781430000000     0.006300000000     0.0304172  
C324     C      0.396730000000     0.726120000000     0.509160000000     0.031303   
C325     C      0.113740000000     0.784350000000     0.009150000000     0.0306693  
C326     C      0.113890000000     0.729050000000     0.506300000000     0.0310679  
C327     C      0.146600000000     0.729130000000     0.506400000000     0.0310024  
C328     C      0.146610000000     0.784450000000     0.009030000000     0.0306405  
C329     C      0.396640000000     0.977660000000     0.505150000000     0.0356004  
C330     C      0.396640000000     0.532780000000     0.010530000000     0.0305209  
C331     C      0.363840000000     0.532780000000     0.010540000000     0.0305713  
C332     C      0.363840000000     0.977660000000     0.505150000000     0.0355668  
C333     C      0.113840000000     0.532800000000     0.005140000000     0.0303735  
C334     C      0.113840000000     0.977680000000     0.510520000000     0.0355863  
C335     C      0.146640000000     0.977680000000     0.510530000000     0.0356237  
C336     C      0.146640000000     0.532800000000     0.005150000000     0.0303955  
C337     C      0.235010000000     0.736230000000     0.649310000000     0.0337226  
C338     C      0.275450000000     0.774250000000     0.649310000000     0.03375    
C339     C      0.274240000000     0.775460000000     0.616380000000     0.0337181  
C340     C      0.236220000000     0.735020000000     0.616380000000     0.0336923  
C341     C      0.236230000000     0.735010000000     0.899310000000     0.0342379  
C342     C      0.274250000000     0.775460000000     0.899300000000     0.0342487  
C343     C      0.275470000000     0.774240000000     0.866380000000     0.0341509  
C344     C      0.235020000000     0.736220000000     0.866380000000     0.0341944  
C345     C      0.235120000000     0.524340000000     0.649330000000     0.0334705  
C346     C      0.275350000000     0.986110000000     0.649330000000     0.0385306  
C347     C      0.274190000000     0.984960000000     0.616400000000     0.0377754  
C348     C      0.236280000000     0.525490000000     0.616400000000     0.0333893  
C349     C      0.234860000000     0.486400000000     0.866410000000     0.0338856  
C350     C      0.275620000000     0.024070000000     0.866400000000     0.0330871  
C351     C      0.274470000000     0.025240000000     0.899330000000     0.0327732  
C352     C      0.236020000000     0.485220000000     0.899340000000     0.0339947  
C353     C      0.281430000000     0.896580000000     0.759380000000     0.0314251  
C354     C      0.226120000000     0.896720000000     0.756530000000     0.0316325  
C355     C      0.226030000000     0.863860000000     0.756650000000     0.031589   
C356     C      0.281350000000     0.863870000000     0.759280000000     0.0313506  
C357     C      0.284350000000     0.613740000000     0.756510000000     0.0313869  
C358     C      0.229040000000     0.613880000000     0.759370000000     0.0311481  
C359     C      0.229130000000     0.646590000000     0.759270000000     0.0311605  
C360     C      0.284450000000     0.646610000000     0.756630000000     0.0314228  
C361     C      0.484980000000     0.774200000000     0.649260000000     0.0334692  
C362     C      0.025510000000     0.736290000000     0.649260000000     0.0322001  
C363     C      0.024350000000     0.735130000000     0.616330000000     0.0327535  
C364     C      0.486120000000     0.775360000000     0.616340000000     0.0333872  
C365     C      0.985230000000     0.736010000000     0.866330000000     0.0381313  
C366     C      0.525250000000     0.774460000000     0.866330000000     0.0338808  
C367     C      0.524070000000     0.775620000000     0.899260000000     0.0340544  
C368     C      0.986410000000     0.734860000000     0.899260000000     0.0391728  
C369     C      0.025440000000     0.024270000000     0.649280000000     0.0314589  
C370     C      0.485050000000     0.486200000000     0.649290000000     0.0334076  
C371     C      0.486210000000     0.485040000000     0.616360000000     0.0334207  
C372     C      0.024280000000     0.025430000000     0.616360000000     0.0313929  
C373     C      0.025430000000     0.986210000000     0.866350000000     0.0378792  
C374     C      0.485050000000     0.524270000000     0.866360000000     0.0338467  
C375     C      0.486210000000     0.525430000000     0.899290000000     0.0339698  
C376     C      0.024270000000     0.985040000000     0.899280000000     0.0374332  
C377     C      0.532790000000     0.896640000000     0.755120000000     0.0315588  
C378     C      0.977670000000     0.896640000000     0.760510000000     0.0358173  
C379     C      0.977670000000     0.863840000000     0.760500000000     0.0358893  
C380     C      0.532790000000     0.863840000000     0.755120000000     0.0314354  
C381     C      0.477690000000     0.613840000000     0.755120000000     0.0312778  
C382     C      0.032810000000     0.613840000000     0.760500000000     0.0302097  
C383     C      0.032810000000     0.646640000000     0.760500000000     0.030192   
C384     C      0.477690000000     0.646640000000     0.755120000000     0.0312218  
C385     C      0.005240000000     0.005240000000     0.317950000000     0.425463   
C386     C      0.005240000000     0.505240000000     0.197690000000     0.426713   
C387     C      0.505250000000     0.065240000000     0.257820000000     0.431216   
C388     C      0.505240000000     0.445240000000     0.257820000000     0.431543   
C389     C      0.005240000000     0.255240000000     0.317930000000     0.426318   
C390     C      0.005240000000     0.255240000000     0.197670000000     0.42669    
C391     C      0.505230000000     0.315240000000     0.257810000000     0.431607   
C392     C      0.505250000000     0.195240000000     0.257800000000     0.431464   
C393     C      0.755230000000     0.005230000000     0.197730000000     0.433046   
C394     C      0.755240000000     0.005230000000     0.318010000000     0.433151   
C395     C      0.756290000000     0.065220000000     0.257890000000     0.431512   
C396     C      0.754190000000     0.445240000000     0.257900000000     0.431705   
C397     C      0.755240000000     0.255230000000     0.318030000000     0.435096   
C398     C      0.755230000000     0.255240000000     0.197670000000     0.435276   
C399     C      0.756460000000     0.195200000000     0.257870000000     0.432335   
C400     C      0.754010000000     0.315260000000     0.257880000000     0.432334   
C401     C      0.005240000000     0.005230000000     0.447690000000     0.425764   
C402     C      0.005240000000     0.005230000000     0.067950000000     0.424922   
C403     C      0.945240000000     0.505230000000     0.507830000000     0.430766   
C404     C      0.565240000000     0.505240000000     0.507820000000     0.431515   
C405     C      0.005240000000     0.255240000000     0.447650000000     0.43313    
C406     C      0.005240000000     0.255240000000     0.067930000000     0.432893   
C407     C      0.945250000000     0.254190000000     0.507770000000     0.431237   
C408     C      0.565220000000     0.256290000000     0.507760000000     0.431936   
C409     C      0.755240000000     0.005230000000     0.067990000000     0.42598    
C410     C      0.755240000000     0.005230000000     0.447730000000     0.426277   
C411     C      0.815240000000     0.505220000000     0.007860000000     0.430766   
C412     C      0.695240000000     0.505240000000     0.007850000000     0.430431   
C413     C      0.755240000000     0.255230000000     0.447650000000     0.434973   
C414     C      0.755230000000     0.255240000000     0.068020000000     0.434455   
C415     C      0.695200000000     0.256460000000     0.507800000000     0.432298   
C416     C      0.815270000000     0.254010000000     0.507810000000     0.432325   
C417     C      0.863860000000     0.226030000000     0.009040000000     0.0309051  
C418     C      0.863880000000     0.281350000000     0.506410000000     0.0312198  
C419     C      0.896580000000     0.281430000000     0.506300000000     0.0313766  
C420     C      0.896730000000     0.226120000000     0.009160000000     0.0308281  
C421     C      0.613740000000     0.284350000000     0.509150000000     0.0313419  
C422     C      0.613890000000     0.229050000000     0.006290000000     0.030469   
C423     C      0.646600000000     0.229130000000     0.006400000000     0.03037    
C424     C      0.646610000000     0.284450000000     0.509030000000     0.0312892  
C425     C      0.896640000000     0.477660000000     0.005150000000     0.0306867  
C426     C      0.896640000000     0.032780000000     0.510530000000     0.0304008  
C427     C      0.863840000000     0.032780000000     0.510540000000     0.0303992  
C428     C      0.863840000000     0.477660000000     0.005150000000     0.030626   
C429     C      0.613840000000     0.032800000000     0.505140000000     0.0301001  
C430     C      0.613840000000     0.477680000000     0.010520000000     0.0305333  
C431     C      0.646640000000     0.477680000000     0.010530000000     0.0305375  
C432     C      0.646640000000     0.032800000000     0.505150000000     0.0300857  
C433     C      0.735010000000     0.236230000000     0.149310000000     0.0337652  
C434     C      0.775450000000     0.274250000000     0.149310000000     0.0337832  
C435     C      0.774240000000     0.275460000000     0.116380000000     0.0337097  
C436     C      0.736220000000     0.235020000000     0.116380000000     0.0337046  
C437     C      0.736230000000     0.235000000000     0.399310000000     0.0336846  
C438     C      0.774250000000     0.275460000000     0.399300000000     0.0337057  
C439     C      0.775470000000     0.274240000000     0.366380000000     0.033713   
C440     C      0.735010000000     0.236220000000     0.366380000000     0.0336995  
C441     C      0.735120000000     0.024340000000     0.149330000000     0.0327528  
C442     C      0.775350000000     0.486110000000     0.149330000000     0.0335354  
C443     C      0.774190000000     0.484960000000     0.116400000000     0.0334018  
C444     C      0.736280000000     0.025490000000     0.116400000000     0.0322312  
C445     C      0.734860000000     0.986400000000     0.366410000000     0.0385865  
C446     C      0.775620000000     0.524070000000     0.366410000000     0.033438   
C447     C      0.774470000000     0.525240000000     0.399330000000     0.033414   
C448     C      0.736020000000     0.985220000000     0.399330000000     0.0377772  
C449     C      0.781430000000     0.396580000000     0.259380000000     0.0311259  
C450     C      0.726120000000     0.396720000000     0.256520000000     0.0313134  
C451     C      0.726030000000     0.363850000000     0.256650000000     0.0313475  
C452     C      0.781350000000     0.363870000000     0.259270000000     0.0311054  
C453     C      0.784350000000     0.113740000000     0.256510000000     0.0312482  
C454     C      0.729040000000     0.113880000000     0.259370000000     0.0309642  
C455     C      0.729130000000     0.146590000000     0.259270000000     0.0311474  
C456     C      0.784440000000     0.146610000000     0.256630000000     0.0313746  
C457     C      0.984980000000     0.274200000000     0.149260000000     0.0378488  
C458     C      0.525500000000     0.236290000000     0.149260000000     0.0334992  
C459     C      0.524360000000     0.235130000000     0.116330000000     0.0334148  
C460     C      0.986120000000     0.275360000000     0.116340000000     0.0385154  
C461     C      0.485230000000     0.236010000000     0.366330000000     0.0333487  
C462     C      0.025250000000     0.274470000000     0.366330000000     0.0321737  
C463     C      0.024070000000     0.275620000000     0.399250000000     0.0326979  
C464     C      0.486410000000     0.234860000000     0.399250000000     0.0334691  
C465     C      0.525430000000     0.524270000000     0.149280000000     0.0335134  
C466     C      0.985050000000     0.986200000000     0.149290000000     0.0429222  
C467     C      0.986210000000     0.985040000000     0.116360000000     0.0428975  
C468     C      0.524280000000     0.525430000000     0.116360000000     0.033279   
C469     C      0.525430000000     0.486200000000     0.366360000000     0.0333449  
C470     C      0.985050000000     0.024270000000     0.366360000000     0.0369663  
C471     C      0.986210000000     0.025430000000     0.399290000000     0.0374158  
C472     C      0.524280000000     0.485050000000     0.399280000000     0.0333726  
C473     C      0.032790000000     0.396640000000     0.255120000000     0.0302778  
C474     C      0.477670000000     0.396640000000     0.260510000000     0.0311459  
C475     C      0.477670000000     0.363850000000     0.260510000000     0.0310787  
C476     C      0.032790000000     0.363850000000     0.255120000000     0.0301606  
C477     C      0.977690000000     0.113850000000     0.255120000000     0.035583   
C478     C      0.532810000000     0.113850000000     0.260500000000     0.0310319  
C479     C      0.532810000000     0.146640000000     0.260500000000     0.0310898  
C480     C      0.977690000000     0.146640000000     0.255120000000     0.0356533  
C481     C      0.005240000000     0.005240000000     0.817950000000     0.425491   
C482     C      0.005240000000     0.505240000000     0.697690000000     0.426442   
C483     C      0.505250000000     0.065240000000     0.757820000000     0.431182   
C484     C      0.505240000000     0.445240000000     0.757820000000     0.431574   
C485     C      0.005240000000     0.255240000000     0.817930000000     0.426439   
C486     C      0.005240000000     0.255240000000     0.697670000000     0.426447   
C487     C      0.505230000000     0.315240000000     0.757810000000     0.431639   
C488     C      0.505250000000     0.195240000000     0.757800000000     0.431504   
C489     C      0.755230000000     0.005230000000     0.697740000000     0.433093   
C490     C      0.755240000000     0.005230000000     0.818010000000     0.433284   
C491     C      0.756290000000     0.065220000000     0.757890000000     0.431514   
C492     C      0.754190000000     0.445240000000     0.757900000000     0.431707   
C493     C      0.755240000000     0.255230000000     0.818030000000     0.435094   
C494     C      0.755230000000     0.255240000000     0.697670000000     0.435245   
C495     C      0.756460000000     0.195200000000     0.757880000000     0.432368   
C496     C      0.754010000000     0.315260000000     0.757880000000     0.432368   
C497     C      0.005240000000     0.005230000000     0.947690000000     0.425037   
C498     C      0.005240000000     0.005230000000     0.567950000000     0.425398   
C499     C      0.945240000000     0.505230000000     0.007830000000     0.429655   
C500     C      0.565240000000     0.505240000000     0.007820000000     0.430433   
C501     C      0.005240000000     0.255240000000     0.947650000000     0.432443   
C502     C      0.005240000000     0.255240000000     0.567930000000     0.433395   
C503     C      0.945250000000     0.254190000000     0.007770000000     0.430118   
C504     C      0.565220000000     0.256290000000     0.007760000000     0.430782   
C505     C      0.755240000000     0.005230000000     0.567990000000     0.426339   
C506     C      0.755240000000     0.005230000000     0.947730000000     0.425677   
C507     C      0.815240000000     0.505220000000     0.507860000000     0.431897   
C508     C      0.695240000000     0.505240000000     0.507850000000     0.431461   
C509     C      0.755240000000     0.255230000000     0.947650000000     0.434195   
C510     C      0.755230000000     0.255240000000     0.568020000000     0.43495    
C511     C      0.695200000000     0.256460000000     0.007800000000     0.431187   
C512     C      0.815270000000     0.254010000000     0.007810000000     0.431219   
C513     C      0.863860000000     0.226030000000     0.509040000000     0.0315437  
C514     C      0.863880000000     0.281350000000     0.006410000000     0.0305638  
C515     C      0.896580000000     0.281430000000     0.006300000000     0.0307236  
C516     C      0.896730000000     0.226120000000     0.509160000000     0.0314746  
C517     C      0.613740000000     0.284350000000     0.009150000000     0.0306938  
C518     C      0.613890000000     0.229050000000     0.506290000000     0.0311274  
C519     C      0.646600000000     0.229130000000     0.506400000000     0.0310257  
C520     C      0.646610000000     0.284450000000     0.009030000000     0.030649   
C521     C      0.896640000000     0.477660000000     0.505150000000     0.0313464  
C522     C      0.896640000000     0.032780000000     0.010530000000     0.0297653  
C523     C      0.863840000000     0.032780000000     0.010540000000     0.0297771  
C524     C      0.863840000000     0.477660000000     0.505150000000     0.0312892  
C525     C      0.613840000000     0.032800000000     0.005140000000     0.0294418  
C526     C      0.613840000000     0.477680000000     0.510520000000     0.0311713  
C527     C      0.646640000000     0.477680000000     0.510530000000     0.0311677  
C528     C      0.646640000000     0.032800000000     0.005150000000     0.029428   
C529     C      0.735010000000     0.236230000000     0.649310000000     0.033724   
C530     C      0.775450000000     0.274250000000     0.649310000000     0.0337414  
C531     C      0.774240000000     0.275460000000     0.616380000000     0.0337179  
C532     C      0.736220000000     0.235020000000     0.616380000000     0.0337123  
C533     C      0.736230000000     0.235000000000     0.899310000000     0.0341794  
C534     C      0.774250000000     0.275460000000     0.899300000000     0.0342335  
C535     C      0.775470000000     0.274240000000     0.866380000000     0.0341643  
C536     C      0.735020000000     0.236220000000     0.866380000000     0.0342224  
C537     C      0.735120000000     0.024340000000     0.649330000000     0.0326336  
C538     C      0.775350000000     0.486110000000     0.649330000000     0.0334666  
C539     C      0.774190000000     0.484960000000     0.616400000000     0.0334227  
C540     C      0.736280000000     0.025490000000     0.616400000000     0.0322705  
C541     C      0.734860000000     0.986400000000     0.866410000000     0.0390185  
C542     C      0.775620000000     0.524070000000     0.866400000000     0.0339111  
C543     C      0.774470000000     0.525240000000     0.899330000000     0.0339684  
C544     C      0.736020000000     0.985220000000     0.899340000000     0.0383482  
C545     C      0.781430000000     0.396580000000     0.759380000000     0.0312096  
C546     C      0.726120000000     0.396720000000     0.756530000000     0.0313777  
C547     C      0.726030000000     0.363850000000     0.756650000000     0.0314535  
C548     C      0.781350000000     0.363870000000     0.759280000000     0.0311793  
C549     C      0.784350000000     0.113740000000     0.756510000000     0.0313207  
C550     C      0.729040000000     0.113880000000     0.759370000000     0.0310455  
C551     C      0.729130000000     0.146590000000     0.759270000000     0.0312255  
C552     C      0.784440000000     0.146610000000     0.756630000000     0.0314548  
C553     C      0.984980000000     0.274200000000     0.649260000000     0.0377859  
C554     C      0.525500000000     0.236290000000     0.649260000000     0.0334574  
C555     C      0.524360000000     0.235130000000     0.616330000000     0.0334218  
C556     C      0.986120000000     0.275360000000     0.616340000000     0.0385173  
C557     C      0.485230000000     0.236010000000     0.866330000000     0.0337915  
C558     C      0.025250000000     0.274470000000     0.866330000000     0.0326157  
C559     C      0.024070000000     0.275620000000     0.899260000000     0.0332865  
C560     C      0.486410000000     0.234860000000     0.899260000000     0.0340541  
C561     C      0.525440000000     0.524270000000     0.649280000000     0.0334073  
C562     C      0.985050000000     0.986200000000     0.649290000000     0.0428568  
C563     C      0.986210000000     0.985040000000     0.616360000000     0.0429049  
C564     C      0.524280000000     0.525430000000     0.616360000000     0.0333222  
C565     C      0.525430000000     0.486200000000     0.866350000000     0.0337946  
C566     C      0.985050000000     0.024270000000     0.866360000000     0.0373992  
C567     C      0.986210000000     0.025430000000     0.899290000000     0.037926   
C568     C      0.524270000000     0.485050000000     0.899280000000     0.0339932  
C569     C      0.032790000000     0.396640000000     0.755120000000     0.0303484  
C570     C      0.477670000000     0.396640000000     0.760510000000     0.0311457  
C571     C      0.477670000000     0.363850000000     0.760500000000     0.0312055  
C572     C      0.032790000000     0.363850000000     0.755120000000     0.030235   
C573     C      0.977690000000     0.113850000000     0.755120000000     0.0356393  
C574     C      0.532810000000     0.113850000000     0.760500000000     0.0311061  
C575     C      0.532810000000     0.146640000000     0.760500000000     0.0311799  
C576     C      0.977690000000     0.146640000000     0.755120000000     0.0357127  
C577     C      0.005240000000     0.505240000000     0.317950000000     0.426393   
C578     C      0.005240000000     0.005240000000     0.197690000000     0.425781   
C579     C      0.505250000000     0.565240000000     0.257820000000     0.431582   
C580     C      0.505240000000     0.945240000000     0.257820000000     0.430724   
C581     C      0.005240000000     0.755240000000     0.317930000000     0.426325   
C582     C      0.005240000000     0.755240000000     0.197670000000     0.426698   
C583     C      0.505230000000     0.815240000000     0.257810000000     0.431655   
C584     C      0.505250000000     0.695240000000     0.257800000000     0.431455   
C585     C      0.755230000000     0.505230000000     0.197730000000     0.433992   
C586     C      0.755240000000     0.505230000000     0.318010000000     0.434099   
C587     C      0.756290000000     0.565220000000     0.257890000000     0.431947   
C588     C      0.754190000000     0.945240000000     0.257900000000     0.430891   
C589     C      0.755240000000     0.755230000000     0.318030000000     0.43511    
C590     C      0.755230000000     0.755230000000     0.197670000000     0.435259   
C591     C      0.756460000000     0.695200000000     0.257870000000     0.432322   
C592     C      0.754010000000     0.815260000000     0.257880000000     0.432383   
C593     C      0.005240000000     0.505240000000     0.447690000000     0.433277   
C594     C      0.005240000000     0.505230000000     0.067950000000     0.432407   
C595     C      0.945240000000     0.005230000000     0.507830000000     0.423321   
C596     C      0.565240000000     0.005240000000     0.507820000000     0.424073   
C597     C      0.005240000000     0.755240000000     0.447650000000     0.433047   
C598     C      0.005240000000     0.755240000000     0.067930000000     0.432608   
C599     C      0.945250000000     0.754190000000     0.507770000000     0.430961   
C600     C      0.565220000000     0.756290000000     0.507760000000     0.431916   
C601     C      0.755240000000     0.505230000000     0.067990000000     0.433442   
C602     C      0.755240000000     0.505230000000     0.447730000000     0.433771   
C603     C      0.815240000000     0.005220000000     0.007860000000     0.423361   
C604     C      0.695240000000     0.005240000000     0.007850000000     0.422953   
C605     C      0.755240000000     0.755230000000     0.447650000000     0.43496    
C606     C      0.755230000000     0.755240000000     0.068020000000     0.434441   
C607     C      0.695200000000     0.756460000000     0.507800000000     0.432285   
C608     C      0.815270000000     0.754010000000     0.507810000000     0.432308   
C609     C      0.863860000000     0.726030000000     0.009040000000     0.0308718  
C610     C      0.863880000000     0.781350000000     0.506410000000     0.0312687  
C611     C      0.896580000000     0.781430000000     0.506300000000     0.0313001  
C612     C      0.896730000000     0.726120000000     0.009160000000     0.0308851  
C613     C      0.613740000000     0.784350000000     0.509150000000     0.0313597  
C614     C      0.613890000000     0.729050000000     0.006290000000     0.0304622  
C615     C      0.646600000000     0.729130000000     0.006400000000     0.030364   
C616     C      0.646610000000     0.784450000000     0.509030000000     0.031307   
C617     C      0.896640000000     0.977660000000     0.005150000000     0.035139   
C618     C      0.896640000000     0.532780000000     0.510530000000     0.0313852  
C619     C      0.863840000000     0.532780000000     0.510540000000     0.0313966  
C620     C      0.863840000000     0.977660000000     0.005150000000     0.0350874  
C621     C      0.613840000000     0.532800000000     0.505140000000     0.0310907  
C622     C      0.613840000000     0.977680000000     0.010520000000     0.0350014  
C623     C      0.646640000000     0.977680000000     0.010530000000     0.0349954  
C624     C      0.646640000000     0.532800000000     0.505150000000     0.0310772  
C625     C      0.735010000000     0.736230000000     0.149310000000     0.0337608  
C626     C      0.775450000000     0.774250000000     0.149310000000     0.0338194  
C627     C      0.774240000000     0.775460000000     0.116380000000     0.0337342  
C628     C      0.736220000000     0.735020000000     0.116380000000     0.0337159  
C629     C      0.736230000000     0.735010000000     0.399310000000     0.0337617  
C630     C      0.774250000000     0.775460000000     0.399300000000     0.0337346  
C631     C      0.775470000000     0.774240000000     0.366380000000     0.0337269  
C632     C      0.735010000000     0.736220000000     0.366380000000     0.0336674  
C633     C      0.735120000000     0.524340000000     0.149330000000     0.033477   
C634     C      0.775350000000     0.986110000000     0.149330000000     0.0386126  
C635     C      0.774190000000     0.984960000000     0.116400000000     0.0377717  
C636     C      0.736280000000     0.525490000000     0.116400000000     0.0334088  
C637     C      0.734860000000     0.486400000000     0.366410000000     0.0334458  
C638     C      0.775620000000     0.024070000000     0.366410000000     0.032633   
C639     C      0.774470000000     0.025240000000     0.399330000000     0.0322646  
C640     C      0.736020000000     0.485220000000     0.399330000000     0.0334239  
C641     C      0.781430000000     0.896580000000     0.259380000000     0.031357   
C642     C      0.726120000000     0.896720000000     0.256520000000     0.0315484  
C643     C      0.726030000000     0.863860000000     0.256650000000     0.0315047  
C644     C      0.781350000000     0.863870000000     0.259280000000     0.0312836  
C645     C      0.784350000000     0.613740000000     0.256510000000     0.0313041  
C646     C      0.729040000000     0.613880000000     0.259370000000     0.0310187  
C647     C      0.729130000000     0.646590000000     0.259270000000     0.031163   
C648     C      0.784440000000     0.646610000000     0.256630000000     0.0313911  
C649     C      0.984980000000     0.774200000000     0.149260000000     0.0378742  
C650     C      0.525500000000     0.736280000000     0.149260000000     0.0334372  
C651     C      0.524360000000     0.735130000000     0.116330000000     0.0334523  
C652     C      0.986120000000     0.775360000000     0.116340000000     0.0385255  
C653     C      0.485230000000     0.736010000000     0.366330000000     0.0333704  
C654     C      0.025250000000     0.774460000000     0.366330000000     0.0322752  
C655     C      0.024070000000     0.775620000000     0.399250000000     0.0326828  
C656     C      0.486410000000     0.734860000000     0.399250000000     0.0334558  
C657     C      0.525440000000     0.024270000000     0.149280000000     0.0326523  
C658     C      0.985050000000     0.486200000000     0.149290000000     0.0378126  
C659     C      0.986210000000     0.485040000000     0.116360000000     0.0385767  
C660     C      0.524280000000     0.025430000000     0.116360000000     0.0321671  
C661     C      0.525430000000     0.986200000000     0.366360000000     0.0385457  
C662     C      0.985050000000     0.524270000000     0.366360000000     0.037757   
C663     C      0.986210000000     0.525430000000     0.399290000000     0.0385753  
C664     C      0.524280000000     0.985040000000     0.399280000000     0.0376342  
C665     C      0.032790000000     0.896640000000     0.255120000000     0.0305025  
C666     C      0.477670000000     0.896640000000     0.260510000000     0.0313646  
C667     C      0.477670000000     0.863840000000     0.260510000000     0.0313017  
C668     C      0.032790000000     0.863850000000     0.255120000000     0.0303533  
C669     C      0.977690000000     0.613840000000     0.255120000000     0.0356735  
C670     C      0.532810000000     0.613840000000     0.260500000000     0.0311198  
C671     C      0.532810000000     0.646640000000     0.260500000000     0.0311004  
C672     C      0.977690000000     0.646640000000     0.255120000000     0.0356641  
C673     C      0.005240000000     0.505240000000     0.817950000000     0.426422   
C674     C      0.005240000000     0.005240000000     0.697690000000     0.425509   
C675     C      0.505250000000     0.565240000000     0.757820000000     0.431553   
C676     C      0.505240000000     0.945240000000     0.757820000000     0.430751   
C677     C      0.005240000000     0.755240000000     0.817930000000     0.426445   
C678     C      0.005240000000     0.755240000000     0.697670000000     0.426455   
C679     C      0.505240000000     0.815240000000     0.757810000000     0.431688   
C680     C      0.505250000000     0.695240000000     0.757800000000     0.431494   
C681     C      0.755240000000     0.505230000000     0.697740000000     0.434039   
C682     C      0.755240000000     0.505230000000     0.818010000000     0.434233   
C683     C      0.756290000000     0.565220000000     0.757890000000     0.431948   
C684     C      0.754190000000     0.945240000000     0.757900000000     0.430893   
C685     C      0.755240000000     0.755230000000     0.818030000000     0.435108   
C686     C      0.755230000000     0.755230000000     0.697670000000     0.435229   
C687     C      0.756460000000     0.695200000000     0.757880000000     0.432355   
C688     C      0.754010000000     0.815260000000     0.757880000000     0.432418   
C689     C      0.005240000000     0.505240000000     0.947690000000     0.432523   
C690     C      0.005240000000     0.505230000000     0.567950000000     0.4329     
C691     C      0.945240000000     0.005230000000     0.007830000000     0.422235   
C692     C      0.565240000000     0.005240000000     0.007820000000     0.422987   
C693     C      0.005240000000     0.755240000000     0.947650000000     0.432423   
C694     C      0.005240000000     0.755240000000     0.567930000000     0.433117   
C695     C      0.945250000000     0.754190000000     0.007770000000     0.429834   
C696     C      0.565220000000     0.756290000000     0.007760000000     0.430759   
C697     C      0.755240000000     0.505230000000     0.567990000000     0.43383    
C698     C      0.755240000000     0.505230000000     0.947730000000     0.433136   
C699     C      0.815240000000     0.005220000000     0.507860000000     0.4242     
C700     C      0.695240000000     0.005240000000     0.507850000000     0.424019   
C701     C      0.755240000000     0.755230000000     0.947660000000     0.434265   
C702     C      0.755230000000     0.755240000000     0.568020000000     0.434936   
C703     C      0.695200000000     0.756460000000     0.007800000000     0.431172   
C704     C      0.815270000000     0.754010000000     0.007810000000     0.4312     
C705     C      0.863860000000     0.726030000000     0.509040000000     0.0315108  
C706     C      0.863880000000     0.781350000000     0.006410000000     0.030613   
C707     C      0.896580000000     0.781430000000     0.006300000000     0.030646   
C708     C      0.896730000000     0.726120000000     0.509160000000     0.0315322  
C709     C      0.613740000000     0.784350000000     0.009150000000     0.0307105  
C710     C      0.613890000000     0.729050000000     0.506300000000     0.0311262  
C711     C      0.646600000000     0.729130000000     0.506400000000     0.031018   
C712     C      0.646610000000     0.784450000000     0.009030000000     0.0306672  
C713     C      0.896640000000     0.977660000000     0.505150000000     0.0358141  
C714     C      0.896640000000     0.532780000000     0.010530000000     0.0307502  
C715     C      0.863840000000     0.532780000000     0.010540000000     0.0307598  
C716     C      0.863840000000     0.977660000000     0.505150000000     0.0357449  
C717     C      0.613840000000     0.532800000000     0.005140000000     0.0304281  
C718     C      0.613840000000     0.977680000000     0.510520000000     0.0356467  
C719     C      0.646640000000     0.977680000000     0.510530000000     0.0356405  
C720     C      0.646640000000     0.532800000000     0.005150000000     0.030414   
C721     C      0.735010000000     0.736230000000     0.649310000000     0.0337195  
C722     C      0.775450000000     0.774250000000     0.649310000000     0.0337775  
C723     C      0.774240000000     0.775460000000     0.616380000000     0.0337423  
C724     C      0.736220000000     0.735020000000     0.616380000000     0.0337235  
C725     C      0.736230000000     0.735010000000     0.899310000000     0.0342412  
C726     C      0.774250000000     0.775460000000     0.899300000000     0.0342466  
C727     C      0.775470000000     0.774240000000     0.866380000000     0.034183   
C728     C      0.735020000000     0.736220000000     0.866380000000     0.0341952  
C729     C      0.735120000000     0.524340000000     0.649330000000     0.0334283  
C730     C      0.775350000000     0.986110000000     0.649330000000     0.0386142  
C731     C      0.774190000000     0.984960000000     0.616400000000     0.0377694  
C732     C      0.736280000000     0.525490000000     0.616400000000     0.0334202  
C733     C      0.734860000000     0.486400000000     0.866410000000     0.0338896  
C734     C      0.775620000000     0.024070000000     0.866400000000     0.0331066  
C735     C      0.774470000000     0.025240000000     0.899330000000     0.03282    
C736     C      0.736020000000     0.485220000000     0.899340000000     0.0340073  
C737     C      0.781430000000     0.896580000000     0.759380000000     0.0314362  
C738     C      0.726120000000     0.896720000000     0.756530000000     0.0316116  
C739     C      0.726030000000     0.863860000000     0.756650000000     0.0316106  
C740     C      0.781350000000     0.863870000000     0.759280000000     0.0313631  
C741     C      0.784350000000     0.613740000000     0.756510000000     0.0313763  
C742     C      0.729040000000     0.613880000000     0.759370000000     0.0310996  
C743     C      0.729130000000     0.646590000000     0.759270000000     0.0312412  
C744     C      0.784440000000     0.646610000000     0.756630000000     0.0314712  
C745     C      0.984980000000     0.774200000000     0.649260000000     0.0378109  
C746     C      0.525500000000     0.736280000000     0.649260000000     0.0333959  
C747     C      0.524360000000     0.735130000000     0.616330000000     0.0334595  
C748     C      0.986120000000     0.775360000000     0.616340000000     0.0385279  
C749     C      0.485230000000     0.736010000000     0.866330000000     0.0338071  
C750     C      0.025250000000     0.774460000000     0.866330000000     0.0327149  
C751     C      0.024070000000     0.775620000000     0.899260000000     0.0332782  
C752     C      0.486410000000     0.734860000000     0.899260000000     0.0340525  
C753     C      0.525440000000     0.024270000000     0.649280000000     0.0326203  
C754     C      0.985050000000     0.486200000000     0.649290000000     0.0377475  
C755     C      0.986210000000     0.485040000000     0.616360000000     0.0385785  
C756     C      0.524280000000     0.025430000000     0.616360000000     0.0321669  
C757     C      0.525430000000     0.986200000000     0.866350000000     0.0390121  
C758     C      0.985050000000     0.524270000000     0.866360000000     0.0381874  
C759     C      0.986210000000     0.525430000000     0.899290000000     0.0390849  
C760     C      0.524280000000     0.985040000000     0.899280000000     0.0381834  
C761     C      0.032790000000     0.896640000000     0.755120000000     0.0305728  
C762     C      0.477670000000     0.896640000000     0.760510000000     0.0313565  
C763     C      0.477670000000     0.863840000000     0.760500000000     0.0314451  
C764     C      0.032790000000     0.863850000000     0.755120000000     0.0304275  
C765     C      0.977690000000     0.613840000000     0.755120000000     0.0357298  
C766     C      0.532810000000     0.613840000000     0.760500000000     0.0311959  
C767     C      0.532810000000     0.646640000000     0.760500000000     0.0311893  
C768     C      0.977690000000     0.646640000000     0.755120000000     0.0357233  
H1       H      0.351910000000     0.203580000000     0.010140000000     0.0381965  
H2       H      0.352050000000     0.303870000000     0.505290000000     0.0391424  
H3       H      0.408360000000     0.303980000000     0.505180000000     0.0389348  
H4       H      0.408740000000     0.203700000000     0.010280000000     0.0383652  
H5       H      0.101740000000     0.306780000000     0.510270000000     0.0388744  
H6       H      0.102110000000     0.206500000000     0.005170000000     0.0379562  
H7       H      0.158420000000     0.206600000000     0.005290000000     0.0382539  
H8       H      0.158570000000     0.306900000000     0.510130000000     0.038872   
H9       H      0.408530000000     0.455260000000     0.002960000000     0.03818    
H10      H      0.408530000000     0.055190000000     0.512720000000     0.0392276  
H11      H      0.351950000000     0.055190000000     0.512730000000     0.0392816  
H12      H      0.351950000000     0.455260000000     0.002970000000     0.0381419  
H13      H      0.101950000000     0.055210000000     0.502950000000     0.0388155  
H14      H      0.101950000000     0.455270000000     0.012710000000     0.0383697  
H15      H      0.158530000000     0.455270000000     0.012720000000     0.0385556  
H16      H      0.158530000000     0.055210000000     0.502970000000     0.0388878  
H17      H      0.218940000000     0.220700000000     0.161620000000     0.0354791  
H18      H      0.291520000000     0.289770000000     0.161610000000     0.0355154  
H19      H      0.289760000000     0.291530000000     0.104070000000     0.0355122  
H20      H      0.220700000000     0.218950000000     0.104070000000     0.0354711  
H21      H      0.220720000000     0.218930000000     0.411620000000     0.0355729  
H22      H      0.289770000000     0.291530000000     0.411620000000     0.0356462  
H23      H      0.291540000000     0.289750000000     0.354060000000     0.0356658  
H24      H      0.218940000000     0.220700000000     0.354070000000     0.0355522  
H25      H      0.219130000000     0.039970000000     0.161600000000     0.0358666  
H26      H      0.291340000000     0.470490000000     0.161600000000     0.0361406  
H27      H      0.289690000000     0.468850000000     0.104120000000     0.0361581  
H28      H      0.220780000000     0.041610000000     0.104130000000     0.0360326  
H29      H      0.218650000000     0.971000000000     0.354130000000     0.0366534  
H30      H      0.291830000000     0.539470000000     0.354120000000     0.0362178  
H31      H      0.290180000000     0.541150000000     0.411610000000     0.0362513  
H32      H      0.220310000000     0.969310000000     0.411620000000     0.0364185  
H33      H      0.303980000000     0.408360000000     0.260500000000     0.0389842  
H34      H      0.203700000000     0.408730000000     0.255400000000     0.039077   
H35      H      0.203580000000     0.351900000000     0.255550000000     0.0389071  
H36      H      0.303870000000     0.352050000000     0.260390000000     0.0391541  
H37      H      0.306770000000     0.101730000000     0.255380000000     0.0389212  
H38      H      0.206500000000     0.102100000000     0.260490000000     0.0387681  
H39      H      0.206600000000     0.158410000000     0.260390000000     0.0390414  
H40      H      0.306900000000     0.158560000000     0.255530000000     0.0388881  
H41      H      0.468860000000     0.289700000000     0.161540000000     0.0361742  
H42      H      0.041620000000     0.220790000000     0.161530000000     0.0360625  
H43      H      0.039980000000     0.219130000000     0.104060000000     0.0358201  
H44      H      0.470500000000     0.291350000000     0.104060000000     0.0361197  
H45      H      0.969320000000     0.220310000000     0.354040000000     0.0364265  
H46      H      0.541160000000     0.290170000000     0.354040000000     0.0362832  
H47      H      0.539470000000     0.291830000000     0.411540000000     0.0361941  
H48      H      0.971010000000     0.218650000000     0.411540000000     0.0366449  
H49      H      0.041490000000     0.539830000000     0.161560000000     0.0360219  
H50      H      0.469000000000     0.970640000000     0.161570000000     0.0365961  
H51      H      0.470650000000     0.968990000000     0.104080000000     0.0362747  
H52      H      0.039840000000     0.541480000000     0.104080000000     0.0358983  
H53      H      0.041490000000     0.470650000000     0.354080000000     0.0361329  
H54      H      0.469000000000     0.039830000000     0.354080000000     0.0360207  
H55      H      0.470650000000     0.041480000000     0.411570000000     0.036109   
H56      H      0.039840000000     0.468990000000     0.411560000000     0.035985   
H57      H      0.555200000000     0.408530000000     0.252940000000     0.0392255  
H58      H      0.955270000000     0.408530000000     0.262700000000     0.0387696  
H59      H      0.955270000000     0.351950000000     0.262690000000     0.0387289  
H60      H      0.555200000000     0.351950000000     0.252930000000     0.0392997  
H61      H      0.455280000000     0.101950000000     0.252940000000     0.039071   
H62      H      0.055220000000     0.101950000000     0.262690000000     0.0388391  
H63      H      0.055220000000     0.158530000000     0.262680000000     0.0389109  
H64      H      0.455290000000     0.158530000000     0.252930000000     0.0392438  
H65      H      0.351910000000     0.203580000000     0.510140000000     0.038875   
H66      H      0.352050000000     0.303870000000     0.005290000000     0.0383664  
H67      H      0.408360000000     0.303980000000     0.005180000000     0.0381892  
H68      H      0.408740000000     0.203700000000     0.510280000000     0.0390584  
H69      H      0.101740000000     0.306780000000     0.010270000000     0.0381665  
H70      H      0.102110000000     0.206500000000     0.505170000000     0.0387118  
H71      H      0.158420000000     0.206600000000     0.505290000000     0.0390284  
H72      H      0.158570000000     0.306900000000     0.010130000000     0.0381943  
H73      H      0.408530000000     0.455260000000     0.502960000000     0.0389804  
H74      H      0.408530000000     0.055190000000     0.012720000000     0.0385784  
H75      H      0.351950000000     0.055190000000     0.012730000000     0.0386341  
H76      H      0.351950000000     0.455260000000     0.502970000000     0.0389419  
H77      H      0.101950000000     0.055210000000     0.002950000000     0.0380192  
H78      H      0.101950000000     0.455270000000     0.512710000000     0.0390209  
H79      H      0.158530000000     0.455270000000     0.512720000000     0.039204   
H80      H      0.158530000000     0.055210000000     0.002970000000     0.0380884  
H81      H      0.218940000000     0.220700000000     0.661620000000     0.0354666  
H82      H      0.291520000000     0.289770000000     0.661610000000     0.0354999  
H83      H      0.289760000000     0.291530000000     0.604070000000     0.0355163  
H84      H      0.220700000000     0.218950000000     0.604070000000     0.035475   
H85      H      0.220720000000     0.218930000000     0.911630000000     0.036885   
H86      H      0.289770000000     0.291530000000     0.911620000000     0.0369541  
H87      H      0.291540000000     0.289750000000     0.854060000000     0.0360832  
H88      H      0.218940000000     0.220700000000     0.854070000000     0.0359679  
H89      H      0.219130000000     0.039970000000     0.661600000000     0.03585    
H90      H      0.291340000000     0.470490000000     0.661600000000     0.0361205  
H91      H      0.289690000000     0.468850000000     0.604120000000     0.0361583  
H92      H      0.220780000000     0.041610000000     0.604130000000     0.0360275  
H93      H      0.218650000000     0.971000000000     0.854130000000     0.0370678  
H94      H      0.291830000000     0.539470000000     0.854120000000     0.0366198  
H95      H      0.290180000000     0.541150000000     0.911610000000     0.0375186  
H96      H      0.220310000000     0.969310000000     0.911620000000     0.0376684  
H97      H      0.303980000000     0.408360000000     0.760500000000     0.0390956  
H98      H      0.203700000000     0.408730000000     0.755400000000     0.0391602  
H99      H      0.203580000000     0.351900000000     0.755550000000     0.0389964  
H100     H      0.303870000000     0.352050000000     0.760390000000     0.0392591  
H101     H      0.306770000000     0.101730000000     0.755380000000     0.0390053  
H102     H      0.206500000000     0.102100000000     0.760490000000     0.0388803  
H103     H      0.206600000000     0.158410000000     0.760390000000     0.0391469  
H104     H      0.306900000000     0.158560000000     0.755530000000     0.0389765  
H105     H      0.468860000000     0.289700000000     0.661540000000     0.0361583  
H106     H      0.041620000000     0.220790000000     0.661540000000     0.0360607  
H107     H      0.039980000000     0.219130000000     0.604060000000     0.0358268  
H108     H      0.470500000000     0.291350000000     0.604060000000     0.0361245  
H109     H      0.969320000000     0.220310000000     0.854050000000     0.0368335  
H110     H      0.541160000000     0.290170000000     0.854040000000     0.0366945  
H111     H      0.539470000000     0.291830000000     0.911540000000     0.0374457  
H112     H      0.971010000000     0.218650000000     0.911540000000     0.0378888  
H113     H      0.041490000000     0.539830000000     0.661560000000     0.0360157  
H114     H      0.469000000000     0.970640000000     0.661570000000     0.0365731  
H115     H      0.470650000000     0.968990000000     0.604090000000     0.0362724  
H116     H      0.039840000000     0.541480000000     0.604080000000     0.035902   
H117     H      0.041490000000     0.470650000000     0.854080000000     0.0365231  
H118     H      0.469000000000     0.039830000000     0.854080000000     0.036428   
H119     H      0.470650000000     0.041480000000     0.911570000000     0.0373695  
H120     H      0.039840000000     0.468990000000     0.911560000000     0.0372485  
H121     H      0.555200000000     0.408530000000     0.752940000000     0.0392793  
H122     H      0.955270000000     0.408530000000     0.762700000000     0.0388978  
H123     H      0.955270000000     0.351950000000     0.762690000000     0.0388513  
H124     H      0.555200000000     0.351950000000     0.752930000000     0.039381   
H125     H      0.455280000000     0.101950000000     0.752940000000     0.0391427  
H126     H      0.055220000000     0.101950000000     0.762690000000     0.0389657  
H127     H      0.055220000000     0.158530000000     0.762680000000     0.0390355  
H128     H      0.455290000000     0.158530000000     0.752930000000     0.0393172  
H129     H      0.351910000000     0.703580000000     0.010140000000     0.0382138  
H130     H      0.352050000000     0.803870000000     0.505290000000     0.0392222  
H131     H      0.408360000000     0.803980000000     0.505180000000     0.039051   
H132     H      0.408740000000     0.703700000000     0.010280000000     0.0383666  
H133     H      0.101740000000     0.806780000000     0.510270000000     0.0389707  
H134     H      0.102110000000     0.706500000000     0.005170000000     0.0379651  
H135     H      0.158420000000     0.706600000000     0.005290000000     0.0382633  
H136     H      0.158570000000     0.806900000000     0.510140000000     0.0389676  
H137     H      0.408530000000     0.955260000000     0.002960000000     0.0379294  
H138     H      0.408530000000     0.555190000000     0.512720000000     0.0391997  
H139     H      0.351950000000     0.555190000000     0.512730000000     0.0392466  
H140     H      0.351950000000     0.955260000000     0.002970000000     0.037901   
H141     H      0.101950000000     0.555210000000     0.502950000000     0.0387801  
H142     H      0.101950000000     0.955270000000     0.012710000000     0.0381225  
H143     H      0.158530000000     0.955270000000     0.012720000000     0.0383052  
H144     H      0.158530000000     0.555210000000     0.502970000000     0.0388574  
H145     H      0.218940000000     0.720700000000     0.161620000000     0.0354864  
H146     H      0.291520000000     0.789770000000     0.161610000000     0.0356062  
H147     H      0.289760000000     0.791530000000     0.104070000000     0.0355826  
H148     H      0.220700000000     0.718950000000     0.104070000000     0.0354765  
H149     H      0.220720000000     0.718930000000     0.411620000000     0.0355678  
H150     H      0.289770000000     0.791530000000     0.411620000000     0.0357324  
H151     H      0.291540000000     0.789750000000     0.354060000000     0.035756   
H152     H      0.218940000000     0.720700000000     0.354070000000     0.0355795  
H153     H      0.219130000000     0.539970000000     0.161600000000     0.0360701  
H154     H      0.291340000000     0.970490000000     0.161600000000     0.0365858  
H155     H      0.289690000000     0.968850000000     0.104120000000     0.0363201  
H156     H      0.220780000000     0.541610000000     0.104130000000     0.0361212  
H157     H      0.218650000000     0.471000000000     0.354130000000     0.0362006  
H158     H      0.291830000000     0.039460000000     0.354120000000     0.0360179  
H159     H      0.290180000000     0.041150000000     0.411610000000     0.0361513  
H160     H      0.220310000000     0.469310000000     0.411620000000     0.0362425  
H161     H      0.303980000000     0.908360000000     0.260500000000     0.0396263  
H162     H      0.203700000000     0.908730000000     0.255400000000     0.0397229  
H163     H      0.203580000000     0.851900000000     0.255550000000     0.0391014  
H164     H      0.303870000000     0.852050000000     0.260390000000     0.0393319  
H165     H      0.306770000000     0.601730000000     0.255380000000     0.0390912  
H166     H      0.206500000000     0.602100000000     0.260490000000     0.0389324  
H167     H      0.206600000000     0.658410000000     0.260390000000     0.0390806  
H168     H      0.306900000000     0.658560000000     0.255530000000     0.0389266  
H169     H      0.468860000000     0.789700000000     0.161540000000     0.0362532  
H170     H      0.041620000000     0.720790000000     0.161530000000     0.0360701  
H171     H      0.039980000000     0.719130000000     0.104060000000     0.0358327  
H172     H      0.470500000000     0.791350000000     0.104060000000     0.0361944  
H173     H      0.969320000000     0.720310000000     0.354050000000     0.036449   
H174     H      0.541160000000     0.790170000000     0.354040000000     0.0363388  
H175     H      0.539470000000     0.791830000000     0.411540000000     0.036279   
H176     H      0.971010000000     0.718650000000     0.411540000000     0.0366433  
H177     H      0.041490000000     0.039830000000     0.161560000000     0.035818   
H178     H      0.469000000000     0.470640000000     0.161570000000     0.036145   
H179     H      0.470650000000     0.468990000000     0.104080000000     0.036111   
H180     H      0.039840000000     0.041480000000     0.104080000000     0.0358111  
H181     H      0.041490000000     0.970650000000     0.354080000000     0.0365696  
H182     H      0.469000000000     0.539830000000     0.354080000000     0.0362322  
H183     H      0.470650000000     0.541480000000     0.411570000000     0.0361993  
H184     H      0.039840000000     0.968990000000     0.411560000000     0.0361746  
H185     H      0.555200000000     0.908530000000     0.252940000000     0.0398717  
H186     H      0.955270000000     0.908540000000     0.262700000000     0.0394295  
H187     H      0.955270000000     0.851950000000     0.262690000000     0.0388911  
H188     H      0.555200000000     0.851950000000     0.252930000000     0.0394773  
H189     H      0.455280000000     0.601950000000     0.252940000000     0.0392212  
H190     H      0.055220000000     0.601950000000     0.262690000000     0.0389937  
H191     H      0.055220000000     0.658530000000     0.262680000000     0.0389536  
H192     H      0.455280000000     0.658530000000     0.252930000000     0.0392731  
H193     H      0.351910000000     0.703580000000     0.510150000000     0.0388933  
H194     H      0.352050000000     0.803870000000     0.005290000000     0.0384463  
H195     H      0.408360000000     0.803980000000     0.005180000000     0.0383053  
H196     H      0.408740000000     0.703700000000     0.510280000000     0.0390628  
H197     H      0.101740000000     0.806780000000     0.010270000000     0.0382632  
H198     H      0.102110000000     0.706500000000     0.505170000000     0.0387219  
H199     H      0.158420000000     0.706600000000     0.505290000000     0.039039   
H200     H      0.158570000000     0.806900000000     0.010130000000     0.0382907  
H201     H      0.408530000000     0.955260000000     0.502960000000     0.0387266  
H202     H      0.408530000000     0.555190000000     0.012720000000     0.0385431  
H203     H      0.351950000000     0.555190000000     0.012730000000     0.0385971  
H204     H      0.351950000000     0.955260000000     0.502970000000     0.0386993  
H205     H      0.101950000000     0.555210000000     0.002950000000     0.0379663  
H206     H      0.101950000000     0.955270000000     0.512710000000     0.0387709  
H207     H      0.158530000000     0.955270000000     0.512720000000     0.0389522  
H208     H      0.158530000000     0.555210000000     0.002970000000     0.0380576  
H209     H      0.218940000000     0.720700000000     0.661620000000     0.0354715  
H210     H      0.291520000000     0.789770000000     0.661610000000     0.035591   
H211     H      0.289760000000     0.791530000000     0.604070000000     0.0355867  
H212     H      0.220700000000     0.718950000000     0.604070000000     0.0354801  
H213     H      0.220720000000     0.718930000000     0.911630000000     0.0368801  
H214     H      0.289770000000     0.791530000000     0.911620000000     0.0370381  
H215     H      0.291540000000     0.789750000000     0.854060000000     0.0361722  
H216     H      0.218940000000     0.720700000000     0.854070000000     0.0359975  
H217     H      0.219130000000     0.539970000000     0.661600000000     0.0360535  
H218     H      0.291340000000     0.970490000000     0.661600000000     0.0365689  
H219     H      0.289690000000     0.968850000000     0.604120000000     0.03632    
H220     H      0.220780000000     0.541610000000     0.604130000000     0.0361167  
H221     H      0.218650000000     0.471000000000     0.854130000000     0.0366184  
H222     H      0.291830000000     0.039460000000     0.854120000000     0.0364194  
H223     H      0.290180000000     0.041150000000     0.911610000000     0.0374169  
H224     H      0.220310000000     0.469310000000     0.911620000000     0.0374985  
H225     H      0.303980000000     0.908360000000     0.760500000000     0.0397367  
H226     H      0.203700000000     0.908730000000     0.755400000000     0.0398047  
H227     H      0.203580000000     0.851900000000     0.755550000000     0.0391905  
H228     H      0.303870000000     0.852050000000     0.760390000000     0.0394367  
H229     H      0.306770000000     0.601730000000     0.755380000000     0.0391753  
H230     H      0.206500000000     0.602100000000     0.760500000000     0.0390448  
H231     H      0.206600000000     0.658410000000     0.760390000000     0.0391863  
H232     H      0.306900000000     0.658560000000     0.755530000000     0.0390149  
H233     H      0.468860000000     0.789700000000     0.661540000000     0.0362375  
H234     H      0.041620000000     0.720790000000     0.661540000000     0.0360682  
H235     H      0.039980000000     0.719130000000     0.604060000000     0.035839   
H236     H      0.470500000000     0.791350000000     0.604060000000     0.0361988  
H237     H      0.969320000000     0.720310000000     0.854050000000     0.0368632  
H238     H      0.541160000000     0.790170000000     0.854040000000     0.0367508  
H239     H      0.539470000000     0.791830000000     0.911540000000     0.0375241  
H240     H      0.971010000000     0.718650000000     0.911540000000     0.0378868  
H241     H      0.041490000000     0.039830000000     0.661560000000     0.0358116  
H242     H      0.469000000000     0.470640000000     0.661570000000     0.036123   
H243     H      0.470650000000     0.468990000000     0.604090000000     0.0361096  
H244     H      0.039840000000     0.041480000000     0.604080000000     0.0358144  
H245     H      0.041490000000     0.970650000000     0.854080000000     0.0369557  
H246     H      0.469000000000     0.539830000000     0.854080000000     0.0366336  
H247     H      0.470650000000     0.541480000000     0.911570000000     0.0374573  
H248     H      0.039840000000     0.968990000000     0.911560000000     0.0374343  
H249     H      0.555200000000     0.908530000000     0.752940000000     0.0399247  
H250     H      0.955270000000     0.908540000000     0.762700000000     0.0395566  
H251     H      0.955270000000     0.851950000000     0.762690000000     0.0390131  
H252     H      0.555200000000     0.851950000000     0.752930000000     0.0395441  
H253     H      0.455280000000     0.601950000000     0.752940000000     0.0392897  
H254     H      0.055220000000     0.601950000000     0.762690000000     0.0391203  
H255     H      0.055220000000     0.658530000000     0.762680000000     0.0390781  
H256     H      0.455290000000     0.658530000000     0.752930000000     0.0393581  
H257     H      0.851910000000     0.203580000000     0.010140000000     0.038377   
H258     H      0.852050000000     0.303870000000     0.505290000000     0.0393199  
H259     H      0.908360000000     0.303980000000     0.505180000000     0.0395825  
H260     H      0.908740000000     0.203700000000     0.010280000000     0.0390148  
H261     H      0.601730000000     0.306780000000     0.510270000000     0.0390531  
H262     H      0.602110000000     0.206500000000     0.005170000000     0.0381296  
H263     H      0.658420000000     0.206600000000     0.005290000000     0.0382925  
H264     H      0.658570000000     0.306900000000     0.510130000000     0.0389119  
H265     H      0.908530000000     0.455260000000     0.002960000000     0.0388341  
H266     H      0.908530000000     0.055190000000     0.512720000000     0.0398732  
H267     H      0.851950000000     0.055190000000     0.512730000000     0.0394609  
H268     H      0.851950000000     0.455260000000     0.002970000000     0.0383256  
H269     H      0.601950000000     0.055210000000     0.502950000000     0.0389712  
H270     H      0.601950000000     0.455270000000     0.012710000000     0.0385411  
H271     H      0.658530000000     0.455270000000     0.012720000000     0.0386011  
H272     H      0.658540000000     0.055210000000     0.502970000000     0.038937   
H273     H      0.718940000000     0.220700000000     0.161620000000     0.0354881  
H274     H      0.791520000000     0.289770000000     0.161610000000     0.0355833  
H275     H      0.789760000000     0.291530000000     0.104070000000     0.035592   
H276     H      0.720690000000     0.218950000000     0.104070000000     0.0354721  
H277     H      0.720720000000     0.218930000000     0.411620000000     0.0355809  
H278     H      0.789760000000     0.291530000000     0.411620000000     0.0357516  
H279     H      0.791540000000     0.289750000000     0.354060000000     0.0357526  
H280     H      0.718940000000     0.220700000000     0.354070000000     0.0355893  
H281     H      0.719130000000     0.039970000000     0.161600000000     0.0358671  
H282     H      0.791340000000     0.470490000000     0.161600000000     0.0361844  
H283     H      0.789690000000     0.468850000000     0.104120000000     0.0362468  
H284     H      0.720780000000     0.041610000000     0.104130000000     0.0360417  
H285     H      0.718650000000     0.971000000000     0.354130000000     0.036657   
H286     H      0.791830000000     0.539470000000     0.354120000000     0.0362876  
H287     H      0.790180000000     0.541150000000     0.411610000000     0.0363319  
H288     H      0.720310000000     0.969310000000     0.411620000000     0.0364143  
H289     H      0.803980000000     0.408360000000     0.260490000000     0.0390737  
H290     H      0.703700000000     0.408730000000     0.255400000000     0.0390889  
H291     H      0.703580000000     0.351900000000     0.255550000000     0.0389192  
H292     H      0.803870000000     0.352050000000     0.260390000000     0.0392403  
H293     H      0.806770000000     0.101730000000     0.255380000000     0.0390216  
H294     H      0.706500000000     0.102100000000     0.260490000000     0.0387892  
H295     H      0.706600000000     0.158410000000     0.260390000000     0.0390317  
H296     H      0.806900000000     0.158560000000     0.255530000000     0.038971   
H297     H      0.968860000000     0.289700000000     0.161540000000     0.0363298  
H298     H      0.541620000000     0.220790000000     0.161540000000     0.0361335  
H299     H      0.539980000000     0.219130000000     0.104060000000     0.0360592  
H300     H      0.970500000000     0.291350000000     0.104060000000     0.0365686  
H301     H      0.469320000000     0.220310000000     0.354040000000     0.0362776  
H302     H      0.041160000000     0.290170000000     0.354040000000     0.0361867  
H303     H      0.039470000000     0.291830000000     0.411540000000     0.0359886  
H304     H      0.471010000000     0.218650000000     0.411540000000     0.0361842  
H305     H      0.541490000000     0.539830000000     0.161560000000     0.0360986  
H306     H      0.969000000000     0.970640000000     0.161570000000     0.0367489  
H307     H      0.970650000000     0.968990000000     0.104080000000     0.0367232  
H308     H      0.539840000000     0.541480000000     0.104080000000     0.0361134  
H309     H      0.541490000000     0.470650000000     0.354080000000     0.0362309  
H310     H      0.968990000000     0.039830000000     0.354080000000     0.036187   
H311     H      0.970650000000     0.041480000000     0.411570000000     0.036557   
H312     H      0.539830000000     0.468990000000     0.411560000000     0.0362192  
H313     H      0.055200000000     0.408530000000     0.252940000000     0.0392351  
H314     H      0.455270000000     0.408530000000     0.262700000000     0.0390053  
H315     H      0.455270000000     0.351950000000     0.262690000000     0.0389901  
H316     H      0.055200000000     0.351950000000     0.252930000000     0.0393376  
H317     H      0.955280000000     0.101950000000     0.252940000000     0.0388217  
H318     H      0.555220000000     0.101950000000     0.262690000000     0.0388093  
H319     H      0.555220000000     0.158530000000     0.262680000000     0.0388826  
H320     H      0.955280000000     0.158530000000     0.252930000000     0.0389775  
H321     H      0.851910000000     0.203580000000     0.510140000000     0.0390543  
H322     H      0.852050000000     0.303870000000     0.005290000000     0.0385455  
H323     H      0.908360000000     0.303980000000     0.005180000000     0.0388347  
H324     H      0.908740000000     0.203700000000     0.510280000000     0.039711   
H325     H      0.601730000000     0.306780000000     0.010270000000     0.0383538  
H326     H      0.602110000000     0.206500000000     0.505170000000     0.038878   
H327     H      0.658420000000     0.206600000000     0.505290000000     0.0390671  
H328     H      0.658570000000     0.306900000000     0.010130000000     0.0382335  
H329     H      0.908530000000     0.455260000000     0.502960000000     0.0396308  
H330     H      0.908530000000     0.055190000000     0.012720000000     0.0392273  
H331     H      0.851950000000     0.055190000000     0.012730000000     0.0388097  
H332     H      0.851950000000     0.455260000000     0.502970000000     0.0391231  
H333     H      0.601950000000     0.055210000000     0.002950000000     0.0381748  
H334     H      0.601950000000     0.455270000000     0.512710000000     0.039192   
H335     H      0.658530000000     0.455270000000     0.512720000000     0.0392434  
H336     H      0.658530000000     0.055210000000     0.002970000000     0.0381303  
H337     H      0.718940000000     0.220700000000     0.661620000000     0.0354752  
H338     H      0.791520000000     0.289770000000     0.661610000000     0.0355688  
H339     H      0.789760000000     0.291530000000     0.604070000000     0.0355966  
H340     H      0.720690000000     0.218950000000     0.604070000000     0.0354754  
H341     H      0.720720000000     0.218930000000     0.911630000000     0.0368928  
H342     H      0.789760000000     0.291530000000     0.911620000000     0.037048   
H343     H      0.791540000000     0.289750000000     0.854060000000     0.036168   
H344     H      0.718940000000     0.220700000000     0.854070000000     0.0359838  
H345     H      0.719130000000     0.039970000000     0.661600000000     0.0358705  
H346     H      0.791340000000     0.470490000000     0.661600000000     0.0361762  
H347     H      0.789690000000     0.468850000000     0.604120000000     0.0362433  
H348     H      0.720780000000     0.041610000000     0.604130000000     0.0360298  
H349     H      0.718650000000     0.971000000000     0.854130000000     0.037072   
H350     H      0.791830000000     0.539470000000     0.854120000000     0.0366887  
H351     H      0.790180000000     0.541150000000     0.911610000000     0.0375977  
H352     H      0.720310000000     0.969310000000     0.911620000000     0.0376605  
H353     H      0.803980000000     0.408360000000     0.760500000000     0.0391857  
H354     H      0.703700000000     0.408730000000     0.755400000000     0.0391748  
H355     H      0.703570000000     0.351900000000     0.755550000000     0.038997   
H356     H      0.803870000000     0.352050000000     0.760390000000     0.0393469  
H357     H      0.806770000000     0.101730000000     0.755380000000     0.0391064  
H358     H      0.706500000000     0.102100000000     0.760490000000     0.0389011  
H359     H      0.706600000000     0.158410000000     0.760390000000     0.0391367  
H360     H      0.806900000000     0.158560000000     0.755530000000     0.0390597  
H361     H      0.968860000000     0.289700000000     0.661540000000     0.0363221  
H362     H      0.541620000000     0.220790000000     0.661540000000     0.0361171  
H363     H      0.539980000000     0.219130000000     0.604060000000     0.0360617  
H364     H      0.970500000000     0.291350000000     0.604060000000     0.0365719  
H365     H      0.469320000000     0.220310000000     0.854050000000     0.0366812  
H366     H      0.041160000000     0.290170000000     0.854040000000     0.0366054  
H367     H      0.039470000000     0.291830000000     0.911540000000     0.0372429  
H368     H      0.471010000000     0.218650000000     0.911540000000     0.0374384  
H369     H      0.541490000000     0.539830000000     0.661560000000     0.0360978  
H370     H      0.969000000000     0.970640000000     0.661570000000     0.0367423  
H371     H      0.970650000000     0.968990000000     0.604090000000     0.0367175  
H372     H      0.539840000000     0.541480000000     0.604080000000     0.0361122  
H373     H      0.541490000000     0.470650000000     0.854080000000     0.0366272  
H374     H      0.968990000000     0.039830000000     0.854080000000     0.0365872  
H375     H      0.970650000000     0.041480000000     0.911570000000     0.0378088  
H376     H      0.539830000000     0.468990000000     0.911560000000     0.037458   
H377     H      0.055200000000     0.408530000000     0.752940000000     0.0393092  
H378     H      0.455270000000     0.408530000000     0.762700000000     0.0391488  
H379     H      0.455270000000     0.351950000000     0.762690000000     0.0391017  
H380     H      0.055200000000     0.351950000000     0.752930000000     0.0394115  
H381     H      0.955280000000     0.101950000000     0.752940000000     0.0388968  
H382     H      0.555220000000     0.101950000000     0.762690000000     0.0389371  
H383     H      0.555220000000     0.158530000000     0.762680000000     0.0390047  
H384     H      0.955280000000     0.158530000000     0.752930000000     0.0390526  
H385     H      0.851910000000     0.703580000000     0.010140000000     0.0383945  
H386     H      0.852050000000     0.803870000000     0.505290000000     0.0393992  
H387     H      0.908360000000     0.803980000000     0.505180000000     0.0396963  
H388     H      0.908740000000     0.703700000000     0.010280000000     0.0390162  
H389     H      0.601730000000     0.806780000000     0.510270000000     0.0391495  
H390     H      0.602110000000     0.706500000000     0.005170000000     0.0381389  
H391     H      0.658420000000     0.706600000000     0.005290000000     0.0383024  
H392     H      0.658570000000     0.806900000000     0.510130000000     0.0390081  
H393     H      0.908530000000     0.955260000000     0.002960000000     0.0385835  
H394     H      0.908530000000     0.555190000000     0.512720000000     0.0398399  
H395     H      0.851950000000     0.555190000000     0.512730000000     0.039425   
H396     H      0.851950000000     0.955260000000     0.002970000000     0.0380739  
H397     H      0.601950000000     0.555210000000     0.502950000000     0.0389424  
H398     H      0.601950000000     0.955270000000     0.012710000000     0.0382914  
H399     H      0.658530000000     0.955270000000     0.012720000000     0.0383448  
H400     H      0.658540000000     0.555210000000     0.502970000000     0.0389081  
H401     H      0.718940000000     0.720700000000     0.161620000000     0.0354931  
H402     H      0.791520000000     0.789770000000     0.161610000000     0.0356744  
H403     H      0.789760000000     0.791530000000     0.104070000000     0.0356621  
H404     H      0.720690000000     0.718950000000     0.104070000000     0.0354773  
H405     H      0.720720000000     0.718930000000     0.411620000000     0.0355766  
H406     H      0.789760000000     0.791530000000     0.411620000000     0.0358373  
H407     H      0.791540000000     0.789750000000     0.354060000000     0.035842   
H408     H      0.718940000000     0.720700000000     0.354070000000     0.0356193  
H409     H      0.719130000000     0.539970000000     0.161600000000     0.0360848  
H410     H      0.791340000000     0.970490000000     0.161600000000     0.0366458  
H411     H      0.789690000000     0.968850000000     0.104120000000     0.0364001  
H412     H      0.720780000000     0.541610000000     0.104130000000     0.0361249  
H413     H      0.718650000000     0.471000000000     0.354130000000     0.0362071  
H414     H      0.791830000000     0.039460000000     0.354120000000     0.0360891  
H415     H      0.790180000000     0.041150000000     0.411610000000     0.0362352  
H416     H      0.720310000000     0.469310000000     0.411620000000     0.0362416  
H417     H      0.803980000000     0.908360000000     0.260500000000     0.0397136  
H418     H      0.703700000000     0.908730000000     0.255400000000     0.0397342  
H419     H      0.703580000000     0.851900000000     0.255550000000     0.0391138  
H420     H      0.803870000000     0.852050000000     0.260390000000     0.0394193  
H421     H      0.806770000000     0.601730000000     0.255380000000     0.0391914  
H422     H      0.706500000000     0.602100000000     0.260490000000     0.0389539  
H423     H      0.706600000000     0.658410000000     0.260390000000     0.0390714  
H424     H      0.806900000000     0.658560000000     0.255530000000     0.0390094  
H425     H      0.968860000000     0.789700000000     0.161540000000     0.0364065  
H426     H      0.541620000000     0.720790000000     0.161540000000     0.0361637  
H427     H      0.539980000000     0.719130000000     0.104060000000     0.0360618  
H428     H      0.970500000000     0.791350000000     0.104060000000     0.0366432  
H429     H      0.469320000000     0.720310000000     0.354040000000     0.0362838  
H430     H      0.041160000000     0.790170000000     0.354040000000     0.0362446  
H431     H      0.039470000000     0.791830000000     0.411540000000     0.0360646  
H432     H      0.471010000000     0.718650000000     0.411540000000     0.0362009  
H433     H      0.541490000000     0.039830000000     0.161560000000     0.0359156  
H434     H      0.969000000000     0.470640000000     0.161570000000     0.0363009  
H435     H      0.970650000000     0.468990000000     0.104080000000     0.0365602  
H436     H      0.539840000000     0.041480000000     0.104080000000     0.0360157  
H437     H      0.541490000000     0.970650000000     0.354080000000     0.0366612  
H438     H      0.968990000000     0.539830000000     0.354080000000     0.0363901  
H439     H      0.970650000000     0.541480000000     0.411570000000     0.0366438  
H440     H      0.539830000000     0.968990000000     0.411560000000     0.036406   
H441     H      0.055200000000     0.908530000000     0.252940000000     0.0398805  
H442     H      0.455270000000     0.908530000000     0.262700000000     0.0396561  
H443     H      0.455270000000     0.851950000000     0.262690000000     0.0391537  
H444     H      0.055200000000     0.851950000000     0.252930000000     0.0395148  
H445     H      0.955280000000     0.601950000000     0.252940000000     0.0389663  
H446     H      0.555220000000     0.601950000000     0.262690000000     0.0389651  
H447     H      0.555220000000     0.658530000000     0.262680000000     0.038925   
H448     H      0.955280000000     0.658530000000     0.252930000000     0.0390185  
H449     H      0.851910000000     0.703580000000     0.510140000000     0.0390727  
H450     H      0.852050000000     0.803870000000     0.005290000000     0.0386247  
H451     H      0.908360000000     0.803980000000     0.005180000000     0.0389489  
H452     H      0.908740000000     0.703700000000     0.510280000000     0.0397133  
H453     H      0.601730000000     0.806780000000     0.010270000000     0.0384502  
H454     H      0.602110000000     0.706500000000     0.505170000000     0.038889   
H455     H      0.658420000000     0.706600000000     0.505290000000     0.0390792  
H456     H      0.658570000000     0.806900000000     0.010130000000     0.0383297  
H457     H      0.908530000000     0.955260000000     0.502960000000     0.0393773  
H458     H      0.908530000000     0.555190000000     0.012720000000     0.0391917  
H459     H      0.851950000000     0.555190000000     0.012730000000     0.0387783  
H460     H      0.851950000000     0.955260000000     0.502970000000     0.0388809  
H461     H      0.601950000000     0.555210000000     0.002950000000     0.038138   
H462     H      0.601950000000     0.955270000000     0.512710000000     0.0389399  
H463     H      0.658530000000     0.955270000000     0.512720000000     0.0389914  
H464     H      0.658530000000     0.555210000000     0.002970000000     0.0380984  
H465     H      0.718940000000     0.720700000000     0.661620000000     0.0354802  
H466     H      0.791520000000     0.789770000000     0.661610000000     0.0356596  
H467     H      0.789760000000     0.791530000000     0.604070000000     0.0356667  
H468     H      0.720690000000     0.718950000000     0.604070000000     0.0354806  
H469     H      0.720720000000     0.718930000000     0.911630000000     0.0368957  
H470     H      0.789760000000     0.791530000000     0.911620000000     0.0371389  
H471     H      0.791540000000     0.789750000000     0.854060000000     0.0362556  
H472     H      0.718940000000     0.720700000000     0.854070000000     0.0360127  
H473     H      0.719130000000     0.539970000000     0.661600000000     0.0360727  
H474     H      0.791340000000     0.970490000000     0.661600000000     0.0366211  
H475     H      0.789690000000     0.968850000000     0.604120000000     0.0364051  
H476     H      0.720780000000     0.541610000000     0.604130000000     0.0361207  
H477     H      0.718650000000     0.471000000000     0.854130000000     0.0366239  
H478     H      0.791830000000     0.039460000000     0.854120000000     0.0364895  
H479     H      0.790180000000     0.041150000000     0.911610000000     0.0374983  
H480     H      0.720310000000     0.469310000000     0.911620000000     0.0374939  
H481     H      0.803980000000     0.908360000000     0.760500000000     0.0398251  
H482     H      0.703700000000     0.908730000000     0.755400000000     0.0398191  
H483     H      0.703570000000     0.851900000000     0.755550000000     0.0391912  
H484     H      0.803870000000     0.852050000000     0.760390000000     0.0395238  
H485     H      0.806770000000     0.601730000000     0.755380000000     0.0392761  
H486     H      0.706500000000     0.602100000000     0.760490000000     0.0390657  
H487     H      0.706600000000     0.658410000000     0.760390000000     0.0391763  
H488     H      0.806900000000     0.658560000000     0.755530000000     0.039098   
H489     H      0.968860000000     0.789700000000     0.661540000000     0.0363987  
H490     H      0.541620000000     0.720790000000     0.661540000000     0.0361478  
H491     H      0.539980000000     0.719130000000     0.604060000000     0.0360653  
H492     H      0.970500000000     0.791350000000     0.604060000000     0.0366458  
H493     H      0.469320000000     0.720310000000     0.854050000000     0.0366883  
H494     H      0.041160000000     0.790170000000     0.854040000000     0.0366632  
H495     H      0.039470000000     0.791830000000     0.911540000000     0.03732    
H496     H      0.471010000000     0.718650000000     0.911540000000     0.0374468  
H497     H      0.541490000000     0.039830000000     0.661560000000     0.0358928  
H498     H      0.969000000000     0.470640000000     0.661570000000     0.0362944  
H499     H      0.970650000000     0.468990000000     0.604090000000     0.0365554  
H500     H      0.539840000000     0.041480000000     0.604080000000     0.0360199  
H501     H      0.541490000000     0.970650000000     0.854080000000     0.0370513  
H502     H      0.968990000000     0.539830000000     0.854080000000     0.0367913  
H503     H      0.970650000000     0.541480000000     0.911570000000     0.0378975  
H504     H      0.539840000000     0.968990000000     0.911560000000     0.0376555  
H505     H      0.055200000000     0.908530000000     0.752940000000     0.0399539  
H506     H      0.455270000000     0.908530000000     0.762700000000     0.0398014  
H507     H      0.455270000000     0.851950000000     0.762690000000     0.0392625  
H508     H      0.055200000000     0.851950000000     0.752930000000     0.0395883  
H509     H      0.955280000000     0.601950000000     0.752940000000     0.0390414  
H510     H      0.555220000000     0.601950000000     0.762690000000     0.0390922  
H511     H      0.555220000000     0.658530000000     0.762680000000     0.0390473  
H512     H      0.955280000000     0.658530000000     0.752930000000     0.0390934  
N1       N      0.347490000000     0.253680000000     0.507750000000    -0.180232   
N2       N      0.413030000000     0.253860000000     0.507750000000    -0.180133   
N3       N      0.097440000000     0.256620000000     0.507740000000    -0.180119   
N4       N      0.162990000000     0.256800000000     0.507740000000    -0.180301   
N5       N      0.413020000000     0.505220000000     0.507830000000    -0.180105   
N6       N      0.347460000000     0.505220000000     0.507850000000    -0.180158   
N7       N      0.097460000000     0.505240000000     0.507830000000    -0.180055   
N8       N      0.163020000000     0.505240000000     0.507850000000    -0.180095   
N9       N      0.255230000000     0.255240000000     0.165530000000    -0.181451   
N10      N      0.255230000000     0.255240000000     0.100160000000    -0.181275   
N11      N      0.255240000000     0.255230000000     0.415520000000    -0.181449   
N12      N      0.255240000000     0.255230000000     0.350160000000    -0.18148    
N13      N      0.255230000000     0.005230000000     0.165570000000    -0.184159   
N14      N      0.255240000000     0.005230000000     0.100150000000    -0.183033   
N15      N      0.255240000000     0.005230000000     0.350170000000    -0.18424    
N16      N      0.255240000000     0.005230000000     0.415570000000    -0.183126   
N17      N      0.253850000000     0.413030000000     0.257930000000    -0.180153   
N18      N      0.253680000000     0.347480000000     0.257940000000    -0.18023    
N19      N      0.256620000000     0.097430000000     0.257920000000    -0.180153   
N20      N      0.256800000000     0.162980000000     0.257930000000    -0.180241   
N21      N      0.505240000000     0.255240000000     0.165510000000    -0.181155   
N22      N      0.505240000000     0.255240000000     0.100090000000    -0.181096   
N23      N      0.505240000000     0.255240000000     0.350090000000    -0.181092   
N24      N      0.505240000000     0.255240000000     0.415490000000    -0.181211   
N25      N      0.505240000000     0.005240000000     0.165530000000    -0.184189   
N26      N      0.505240000000     0.005230000000     0.100120000000    -0.182948   
N27      N      0.505240000000     0.005240000000     0.350110000000    -0.184254   
N28      N      0.505240000000     0.005240000000     0.415530000000    -0.183186   
N29      N      0.005240000000     0.413020000000     0.257820000000    -0.182184   
N30      N      0.005230000000     0.347460000000     0.257810000000    -0.182154   
N31      N      0.005250000000     0.097460000000     0.257820000000    -0.182125   
N32      N      0.005250000000     0.163020000000     0.257810000000    -0.182173   
N33      N      0.347490000000     0.253680000000     0.007750000000    -0.180374   
N34      N      0.413040000000     0.253860000000     0.007750000000    -0.180351   
N35      N      0.097440000000     0.256620000000     0.007740000000    -0.180328   
N36      N      0.162990000000     0.256800000000     0.007740000000    -0.180439   
N37      N      0.413020000000     0.505220000000     0.007830000000    -0.180253   
N38      N      0.347460000000     0.505220000000     0.007850000000    -0.180298   
N39      N      0.097460000000     0.505240000000     0.007830000000    -0.180208   
N40      N      0.163020000000     0.505240000000     0.007850000000    -0.18024    
N41      N      0.255230000000     0.255240000000     0.665530000000    -0.181455   
N42      N      0.255230000000     0.255240000000     0.600160000000    -0.181387   
N43      N      0.255240000000     0.255230000000     0.915520000000    -0.180707   
N44      N      0.255240000000     0.255230000000     0.850170000000    -0.181341   
N45      N      0.255230000000     0.005230000000     0.665570000000    -0.184165   
N46      N      0.255240000000     0.005230000000     0.600160000000    -0.183074   
N47      N      0.255240000000     0.005230000000     0.850170000000    -0.184177   
N48      N      0.255240000000     0.005230000000     0.915570000000    -0.182473   
N49      N      0.253850000000     0.413030000000     0.757930000000    -0.180124   
N50      N      0.253680000000     0.347480000000     0.757940000000    -0.180205   
N51      N      0.256620000000     0.097430000000     0.757920000000    -0.180122   
N52      N      0.256800000000     0.162980000000     0.757930000000    -0.180217   
N53      N      0.505240000000     0.255240000000     0.665510000000    -0.181166   
N54      N      0.505240000000     0.255240000000     0.600090000000    -0.18121    
N55      N      0.505240000000     0.255240000000     0.850090000000    -0.181071   
N56      N      0.505240000000     0.255240000000     0.915490000000    -0.180572   
N57      N      0.505240000000     0.005240000000     0.665530000000    -0.184248   
N58      N      0.505240000000     0.005230000000     0.600120000000    -0.183057   
N59      N      0.505240000000     0.005240000000     0.850120000000    -0.184124   
N60      N      0.505240000000     0.005240000000     0.915530000000    -0.182516   
N61      N      0.005240000000     0.413020000000     0.757820000000    -0.182145   
N62      N      0.005230000000     0.347460000000     0.757810000000    -0.182124   
N63      N      0.005250000000     0.097460000000     0.757810000000    -0.182086   
N64      N      0.005250000000     0.163020000000     0.757800000000    -0.182142   
N65      N      0.347490000000     0.753680000000     0.507750000000    -0.180232   
N66      N      0.413030000000     0.753850000000     0.507750000000    -0.180074   
N67      N      0.097440000000     0.756620000000     0.507740000000    -0.180115   
N68      N      0.162990000000     0.756800000000     0.507740000000    -0.180297   
N69      N      0.413020000000     0.005220000000     0.507830000000    -0.182189   
N70      N      0.347460000000     0.005220000000     0.507850000000    -0.182186   
N71      N      0.097460000000     0.005240000000     0.507830000000    -0.182127   
N72      N      0.163020000000     0.005240000000     0.507850000000    -0.182174   
N73      N      0.255230000000     0.755240000000     0.165530000000    -0.181439   
N74      N      0.255230000000     0.755240000000     0.100160000000    -0.181269   
N75      N      0.255240000000     0.755230000000     0.415520000000    -0.181468   
N76      N      0.255240000000     0.755230000000     0.350160000000    -0.18147    
N77      N      0.255230000000     0.505230000000     0.165570000000    -0.181102   
N78      N      0.255240000000     0.505230000000     0.100150000000    -0.18103    
N79      N      0.255240000000     0.505230000000     0.350170000000    -0.181183   
N80      N      0.255240000000     0.505230000000     0.415570000000    -0.181117   
N81      N      0.253850000000     0.913030000000     0.257930000000    -0.179709   
N82      N      0.253680000000     0.847480000000     0.257940000000    -0.180201   
N83      N      0.256620000000     0.597430000000     0.257920000000    -0.180204   
N84      N      0.256800000000     0.662980000000     0.257930000000    -0.180241   
N85      N      0.505240000000     0.755240000000     0.165510000000    -0.181125   
N86      N      0.505240000000     0.755240000000     0.100090000000    -0.181042   
N87      N      0.505240000000     0.755240000000     0.350090000000    -0.181112   
N88      N      0.505240000000     0.755240000000     0.415490000000    -0.181135   
N89      N      0.505240000000     0.505240000000     0.165530000000    -0.181155   
N90      N      0.505240000000     0.505230000000     0.100120000000    -0.180939   
N91      N      0.505240000000     0.505240000000     0.350110000000    -0.181133   
N92      N      0.505240000000     0.505240000000     0.415530000000    -0.181207   
N93      N      0.005240000000     0.913020000000     0.257820000000    -0.181741   
N94      N      0.005230000000     0.847460000000     0.257810000000    -0.182147   
N95      N      0.005250000000     0.597460000000     0.257820000000    -0.182197   
N96      N      0.005250000000     0.663020000000     0.257810000000    -0.182173   
N97      N      0.347490000000     0.753680000000     0.007750000000    -0.180374   
N98      N      0.413040000000     0.753850000000     0.007750000000    -0.180293   
N99      N      0.097440000000     0.756620000000     0.007740000000    -0.180323   
N100     N      0.162990000000     0.756800000000     0.007740000000    -0.180436   
N101     N      0.413020000000     0.005220000000     0.007830000000    -0.182324   
N102     N      0.347460000000     0.005220000000     0.007850000000    -0.18232    
N103     N      0.097460000000     0.005240000000     0.007830000000    -0.182261   
N104     N      0.163020000000     0.005240000000     0.007850000000    -0.182313   
N105     N      0.255230000000     0.755240000000     0.665530000000    -0.181444   
N106     N      0.255230000000     0.755240000000     0.600160000000    -0.181381   
N107     N      0.255240000000     0.755230000000     0.915520000000    -0.180726   
N108     N      0.255240000000     0.755230000000     0.850170000000    -0.181331   
N109     N      0.255230000000     0.505230000000     0.665570000000    -0.181106   
N110     N      0.255240000000     0.505230000000     0.600160000000    -0.181067   
N111     N      0.255240000000     0.505230000000     0.850170000000    -0.181126   
N112     N      0.255240000000     0.505230000000     0.915570000000    -0.180466   
N113     N      0.253850000000     0.913030000000     0.757930000000    -0.179686   
N114     N      0.253680000000     0.847480000000     0.757940000000    -0.180176   
N115     N      0.256620000000     0.597430000000     0.757920000000    -0.180174   
N116     N      0.256800000000     0.662980000000     0.757930000000    -0.180216   
N117     N      0.505240000000     0.755240000000     0.665510000000    -0.181136   
N118     N      0.505240000000     0.755240000000     0.600090000000    -0.181156   
N119     N      0.505240000000     0.755240000000     0.850090000000    -0.181089   
N120     N      0.505240000000     0.755240000000     0.915490000000    -0.180557   
N121     N      0.505240000000     0.505240000000     0.665530000000    -0.18119    
N122     N      0.505240000000     0.505230000000     0.600120000000    -0.181046   
N123     N      0.505240000000     0.505240000000     0.850120000000    -0.181055   
N124     N      0.505240000000     0.505240000000     0.915530000000    -0.180566   
N125     N      0.005240000000     0.913020000000     0.757820000000    -0.181701   
N126     N      0.005230000000     0.847460000000     0.757810000000    -0.182117   
N127     N      0.005250000000     0.597460000000     0.757810000000    -0.182158   
N128     N      0.005250000000     0.663020000000     0.757800000000    -0.182142   
N129     N      0.847490000000     0.253680000000     0.507750000000    -0.18021    
N130     N      0.913040000000     0.253860000000     0.507750000000    -0.179772   
N131     N      0.597440000000     0.256620000000     0.507740000000    -0.180175   
N132     N      0.662990000000     0.256800000000     0.507740000000    -0.180306   
N133     N      0.913020000000     0.505220000000     0.507830000000    -0.179672   
N134     N      0.847460000000     0.505220000000     0.507850000000    -0.180135   
N135     N      0.597460000000     0.505240000000     0.507830000000    -0.18011    
N136     N      0.663020000000     0.505240000000     0.507850000000    -0.180102   
N137     N      0.755230000000     0.255240000000     0.165530000000    -0.181443   
N138     N      0.755230000000     0.255240000000     0.100160000000    -0.181271   
N139     N      0.755240000000     0.255230000000     0.415520000000    -0.181447   
N140     N      0.755240000000     0.255230000000     0.350160000000    -0.181453   
N141     N      0.755230000000     0.005230000000     0.165570000000    -0.184224   
N142     N      0.755240000000     0.005230000000     0.100150000000    -0.183021   
N143     N      0.755240000000     0.005230000000     0.350170000000    -0.184232   
N144     N      0.755240000000     0.005230000000     0.415570000000    -0.183126   
N145     N      0.753850000000     0.413030000000     0.257930000000    -0.18015    
N146     N      0.753680000000     0.347480000000     0.257940000000    -0.180229   
N147     N      0.756620000000     0.097430000000     0.257920000000    -0.180139   
N148     N      0.756790000000     0.162980000000     0.257930000000    -0.180272   
N149     N      0.005240000000     0.255240000000     0.165510000000    -0.183187   
N150     N      0.005240000000     0.255240000000     0.100090000000    -0.184191   
N151     N      0.005240000000     0.255240000000     0.350090000000    -0.183129   
N152     N      0.005240000000     0.255240000000     0.415490000000    -0.184269   
N153     N      0.005240000000     0.005240000000     0.165530000000    -0.186237   
N154     N      0.005240000000     0.005230000000     0.100120000000    -0.185998   
N155     N      0.005240000000     0.005240000000     0.350110000000    -0.186219   
N156     N      0.005240000000     0.005240000000     0.415530000000    -0.186271   
N157     N      0.505230000000     0.413020000000     0.257820000000    -0.180094   
N158     N      0.505230000000     0.347460000000     0.257810000000    -0.18007    
N159     N      0.505250000000     0.097460000000     0.257820000000    -0.180046   
N160     N      0.505250000000     0.163020000000     0.257810000000    -0.180084   
N161     N      0.847490000000     0.253680000000     0.007750000000    -0.180351   
N162     N      0.913040000000     0.253860000000     0.007750000000    -0.17991    
N163     N      0.597440000000     0.256620000000     0.007740000000    -0.180308   
N164     N      0.662990000000     0.256800000000     0.007740000000    -0.180446   
N165     N      0.913020000000     0.505220000000     0.007830000000    -0.179813   
N166     N      0.847460000000     0.505220000000     0.007850000000    -0.180272   
N167     N      0.597460000000     0.505240000000     0.007830000000    -0.180257   
N168     N      0.663020000000     0.505240000000     0.007850000000    -0.18025    
N169     N      0.755230000000     0.255240000000     0.665530000000    -0.181447   
N170     N      0.755230000000     0.255240000000     0.600160000000    -0.181383   
N171     N      0.755240000000     0.255230000000     0.915520000000    -0.180774   
N172     N      0.755240000000     0.255230000000     0.850170000000    -0.181336   
N173     N      0.755240000000     0.005230000000     0.665570000000    -0.184158   
N174     N      0.755240000000     0.005230000000     0.600160000000    -0.183065   
N175     N      0.755240000000     0.005230000000     0.850170000000    -0.184169   
N176     N      0.755240000000     0.005230000000     0.915570000000    -0.182481   
N177     N      0.753850000000     0.413030000000     0.757930000000    -0.180119   
N178     N      0.753680000000     0.347480000000     0.757940000000    -0.180208   
N179     N      0.756620000000     0.097430000000     0.757920000000    -0.180109   
N180     N      0.756790000000     0.162980000000     0.757930000000    -0.180247   
N181     N      0.005240000000     0.255240000000     0.665510000000    -0.183141   
N182     N      0.005240000000     0.255240000000     0.600090000000    -0.1843     
N183     N      0.005240000000     0.255240000000     0.850090000000    -0.183042   
N184     N      0.005240000000     0.255240000000     0.915490000000    -0.183614   
N185     N      0.005240000000     0.005240000000     0.665530000000    -0.186185   
N186     N      0.005240000000     0.005230000000     0.600120000000    -0.186105   
N187     N      0.005240000000     0.005240000000     0.850120000000    -0.186076   
N188     N      0.005240000000     0.005240000000     0.915530000000    -0.185579   
N189     N      0.505240000000     0.413020000000     0.757820000000    -0.180069   
N190     N      0.505230000000     0.347460000000     0.757810000000    -0.180049   
N191     N      0.505250000000     0.097460000000     0.757810000000    -0.180009   
N192     N      0.505250000000     0.163020000000     0.757810000000    -0.180061   
N193     N      0.847490000000     0.753680000000     0.507750000000    -0.18021    
N194     N      0.913040000000     0.753850000000     0.507750000000    -0.179716   
N195     N      0.597440000000     0.756620000000     0.507740000000    -0.180171   
N196     N      0.662990000000     0.756800000000     0.507740000000    -0.180302   
N197     N      0.913020000000     0.005220000000     0.507830000000    -0.181745   
N198     N      0.847460000000     0.005220000000     0.507850000000    -0.182159   
N199     N      0.597460000000     0.005240000000     0.507830000000    -0.182191   
N200     N      0.663020000000     0.005240000000     0.507850000000    -0.182182   
N201     N      0.755230000000     0.755240000000     0.165530000000    -0.181432   
N202     N      0.755230000000     0.755240000000     0.100160000000    -0.181265   
N203     N      0.755240000000     0.755230000000     0.415520000000    -0.181466   
N204     N      0.755240000000     0.755230000000     0.350160000000    -0.181443   
N205     N      0.755240000000     0.505230000000     0.165570000000    -0.18117    
N206     N      0.755240000000     0.505230000000     0.100150000000    -0.181016   
N207     N      0.755240000000     0.505230000000     0.350170000000    -0.181176   
N208     N      0.755240000000     0.505230000000     0.415570000000    -0.181118   
N209     N      0.753850000000     0.913030000000     0.257930000000    -0.179712   
N210     N      0.753680000000     0.847480000000     0.257940000000    -0.180199   
N211     N      0.756620000000     0.597430000000     0.257920000000    -0.180191   
N212     N      0.756790000000     0.662980000000     0.257930000000    -0.180271   
N213     N      0.005240000000     0.755240000000     0.165510000000    -0.18318    
N214     N      0.005240000000     0.755240000000     0.100090000000    -0.184127   
N215     N      0.005240000000     0.755240000000     0.350090000000    -0.183119   
N216     N      0.005240000000     0.755240000000     0.415490000000    -0.184254   
N217     N      0.005240000000     0.505240000000     0.165530000000    -0.183198   
N218     N      0.005240000000     0.505230000000     0.100120000000    -0.184013   
N219     N      0.005240000000     0.505240000000     0.350110000000    -0.183163   
N220     N      0.005240000000     0.505240000000     0.415530000000    -0.184308   
N221     N      0.505230000000     0.913020000000     0.257820000000    -0.179653   
N222     N      0.505230000000     0.847460000000     0.257810000000    -0.180066   
N223     N      0.505250000000     0.597460000000     0.257820000000    -0.180111   
N224     N      0.505250000000     0.663020000000     0.257810000000    -0.180088   
N225     N      0.847490000000     0.753680000000     0.007750000000    -0.180351   
N226     N      0.913040000000     0.753850000000     0.007750000000    -0.179853   
N227     N      0.597440000000     0.756620000000     0.007740000000    -0.180303   
N228     N      0.662990000000     0.756800000000     0.007740000000    -0.180443   
N229     N      0.913020000000     0.005220000000     0.007830000000    -0.181878   
N230     N      0.847460000000     0.005220000000     0.007850000000    -0.182344   
N231     N      0.597460000000     0.005240000000     0.007830000000    -0.182325   
N232     N      0.663020000000     0.005240000000     0.007850000000    -0.182319   
N233     N      0.755230000000     0.755240000000     0.665530000000    -0.181436   
N234     N      0.755230000000     0.755240000000     0.600160000000    -0.181377   
N235     N      0.755240000000     0.755230000000     0.915520000000    -0.180718   
N236     N      0.755240000000     0.755230000000     0.850170000000    -0.181328   
N237     N      0.755240000000     0.505230000000     0.665570000000    -0.1811     
N238     N      0.755240000000     0.505230000000     0.600160000000    -0.181059   
N239     N      0.755240000000     0.505230000000     0.850170000000    -0.181118   
N240     N      0.755240000000     0.505230000000     0.915570000000    -0.180473   
N241     N      0.753850000000     0.913030000000     0.757930000000    -0.179681   
N242     N      0.753680000000     0.847480000000     0.757940000000    -0.180179   
N243     N      0.756620000000     0.597430000000     0.757920000000    -0.18016    
N244     N      0.756790000000     0.662980000000     0.757930000000    -0.180247   
N245     N      0.005240000000     0.755240000000     0.665510000000    -0.183134   
N246     N      0.005240000000     0.755240000000     0.600090000000    -0.184237   
N247     N      0.005240000000     0.755240000000     0.850090000000    -0.183033   
N248     N      0.005240000000     0.755240000000     0.915490000000    -0.183606   
N249     N      0.005240000000     0.505240000000     0.665530000000    -0.183143   
N250     N      0.005240000000     0.505230000000     0.600120000000    -0.184119   
N251     N      0.005240000000     0.505240000000     0.850120000000    -0.183023   
N252     N      0.005240000000     0.505240000000     0.915530000000    -0.183619   
N253     N      0.505240000000     0.913020000000     0.757820000000    -0.179626   
N254     N      0.505230000000     0.847460000000     0.757810000000    -0.180056   
N255     N      0.505250000000     0.597460000000     0.757810000000    -0.180077   
N256     N      0.505250000000     0.663020000000     0.757810000000    -0.18006    
Ni1      Ni     0.033120000000     0.005240000000     0.257820000000     0.989003   
Ni2      Ni     0.477360000000     0.005240000000     0.257820000000     0.996062   
Ni3      Ni     0.033120000000     0.255250000000     0.257800000000     0.994534   
Ni4      Ni     0.477360000000     0.255240000000     0.257810000000     1.00192    
Ni5      Ni     0.227350000000     0.005610000000     0.257880000000     0.996805   
Ni6      Ni     0.283130000000     0.004850000000     0.257870000000     0.996864   
Ni7      Ni     0.227280000000     0.254270000000     0.257850000000     1.00527    
Ni8      Ni     0.283190000000     0.256190000000     0.257850000000     1.00555    
Ni9      Ni     0.505240000000     0.477350000000     0.507820000000     1.00198    
Ni10     Ni     0.505240000000     0.033110000000     0.007820000000     0.987895   
Ni11     Ni     0.505620000000     0.227350000000     0.507790000000     1.00266    
Ni12     Ni     0.504860000000     0.283130000000     0.007790000000     0.995737   
Ni13     Ni     0.255240000000     0.477350000000     0.007860000000     0.995073   
Ni14     Ni     0.255250000000     0.033110000000     0.507860000000     0.994435   
Ni15     Ni     0.254280000000     0.227280000000     0.507840000000     1.00497    
Ni16     Ni     0.256200000000     0.283190000000     0.007830000000     0.998441   
Ni17     Ni     0.033120000000     0.005240000000     0.757820000000     0.989054   
Ni18     Ni     0.477360000000     0.005240000000     0.757820000000     0.995962   
Ni19     Ni     0.033120000000     0.255250000000     0.757800000000     0.994608   
Ni20     Ni     0.477360000000     0.255240000000     0.757800000000     1.00205    
Ni21     Ni     0.227350000000     0.005610000000     0.757880000000     0.996902   
Ni22     Ni     0.283130000000     0.004850000000     0.757870000000     0.996902   
Ni23     Ni     0.227280000000     0.254270000000     0.757850000000     1.00534    
Ni24     Ni     0.283190000000     0.256190000000     0.757850000000     1.00561    
Ni25     Ni     0.505240000000     0.477350000000     0.007820000000     0.995317   
Ni26     Ni     0.505240000000     0.033110000000     0.507820000000     0.994677   
Ni27     Ni     0.505610000000     0.227350000000     0.007790000000     0.995656   
Ni28     Ni     0.504860000000     0.283130000000     0.507790000000     1.00251    
Ni29     Ni     0.255240000000     0.477350000000     0.507860000000     1.00208    
Ni30     Ni     0.255250000000     0.033110000000     0.007860000000     0.987712   
Ni31     Ni     0.254280000000     0.227280000000     0.007840000000     0.998143   
Ni32     Ni     0.256200000000     0.283190000000     0.507830000000     1.00528    
Ni33     Ni     0.033120000000     0.505240000000     0.257820000000     0.994769   
Ni34     Ni     0.477360000000     0.505240000000     0.257820000000     1.00204    
Ni35     Ni     0.033120000000     0.755250000000     0.257800000000     0.994541   
Ni36     Ni     0.477360000000     0.755240000000     0.257810000000     1.00192    
Ni37     Ni     0.227350000000     0.505610000000     0.257880000000     1.00262    
Ni38     Ni     0.283130000000     0.504850000000     0.257870000000     1.00273    
Ni39     Ni     0.227280000000     0.754270000000     0.257850000000     1.00527    
Ni40     Ni     0.283190000000     0.756190000000     0.257850000000     1.00554    
Ni41     Ni     0.505240000000     0.977350000000     0.507820000000     1.00564    
Ni42     Ni     0.505240000000     0.533120000000     0.007820000000     0.995303   
Ni43     Ni     0.505620000000     0.727350000000     0.507790000000     1.00244    
Ni44     Ni     0.504860000000     0.783130000000     0.007790000000     0.995761   
Ni45     Ni     0.255240000000     0.977350000000     0.007860000000     0.998662   
Ni46     Ni     0.255250000000     0.533110000000     0.507860000000     1.00177    
Ni47     Ni     0.254280000000     0.727280000000     0.507840000000     1.0049     
Ni48     Ni     0.256200000000     0.783190000000     0.007830000000     0.998534   
Ni49     Ni     0.033120000000     0.505240000000     0.757820000000     0.99482    
Ni50     Ni     0.477360000000     0.505240000000     0.757820000000     1.00199    
Ni51     Ni     0.033120000000     0.755250000000     0.757800000000     0.994614   
Ni52     Ni     0.477360000000     0.755240000000     0.757800000000     1.00201    
Ni53     Ni     0.227350000000     0.505610000000     0.757880000000     1.00272    
Ni54     Ni     0.283130000000     0.504850000000     0.757870000000     1.00275    
Ni55     Ni     0.227280000000     0.754270000000     0.757850000000     1.00534    
Ni56     Ni     0.283190000000     0.756190000000     0.757850000000     1.00561    
Ni57     Ni     0.505240000000     0.977350000000     0.007820000000     0.998838   
Ni58     Ni     0.505240000000     0.533110000000     0.507820000000     1.00204    
Ni59     Ni     0.505610000000     0.727350000000     0.007790000000     0.995495   
Ni60     Ni     0.504860000000     0.783130000000     0.507790000000     1.00268    
Ni61     Ni     0.255240000000     0.977350000000     0.507860000000     1.00566    
Ni62     Ni     0.255250000000     0.533110000000     0.007860000000     0.995012   
Ni63     Ni     0.254280000000     0.727280000000     0.007840000000     0.998064   
Ni64     Ni     0.256200000000     0.783190000000     0.507830000000     1.00537    
Ni65     Ni     0.533120000000     0.005240000000     0.257820000000     0.996288   
Ni66     Ni     0.977360000000     0.005240000000     0.257820000000     0.999704   
Ni67     Ni     0.533120000000     0.255250000000     0.257800000000     1.00184    
Ni68     Ni     0.977360000000     0.255240000000     0.257810000000     1.0056     
Ni69     Ni     0.727350000000     0.005610000000     0.257880000000     0.996761   
Ni70     Ni     0.783130000000     0.004850000000     0.257870000000     0.996933   
Ni71     Ni     0.727280000000     0.254270000000     0.257850000000     1.00519    
Ni72     Ni     0.783190000000     0.256190000000     0.257850000000     1.00563    
Ni73     Ni     0.005240000000     0.477350000000     0.507820000000     0.996325   
Ni74     Ni     0.005240000000     0.033110000000     0.007820000000     0.982079   
Ni75     Ni     0.005610000000     0.227350000000     0.507790000000     0.996841   
Ni76     Ni     0.004860000000     0.283130000000     0.007790000000     0.98988    
Ni77     Ni     0.755230000000     0.477350000000     0.007860000000     0.99495    
Ni78     Ni     0.755250000000     0.033110000000     0.507860000000     0.994431   
Ni79     Ni     0.754280000000     0.227280000000     0.507840000000     1.00497    
Ni80     Ni     0.756190000000     0.283190000000     0.007830000000     0.998435   
Ni81     Ni     0.533120000000     0.005240000000     0.757820000000     0.996404   
Ni82     Ni     0.977360000000     0.005240000000     0.757820000000     0.999698   
Ni83     Ni     0.533120000000     0.255250000000     0.757800000000     1.00194    
Ni84     Ni     0.977360000000     0.255240000000     0.757800000000     1.00562    
Ni85     Ni     0.727350000000     0.005610000000     0.757880000000     0.996824   
Ni86     Ni     0.783130000000     0.004850000000     0.757870000000     0.996995   
Ni87     Ni     0.727280000000     0.254270000000     0.757850000000     1.00526    
Ni88     Ni     0.783190000000     0.256190000000     0.757850000000     1.0057     
Ni89     Ni     0.005240000000     0.477350000000     0.007820000000     0.989504   
Ni90     Ni     0.005240000000     0.033110000000     0.507820000000     0.988861   
Ni91     Ni     0.005610000000     0.227350000000     0.007790000000     0.989824   
Ni92     Ni     0.004860000000     0.283130000000     0.507790000000     0.996655   
Ni93     Ni     0.755230000000     0.477350000000     0.507860000000     1.00211    
Ni94     Ni     0.755250000000     0.033110000000     0.007860000000     0.987556   
Ni95     Ni     0.754280000000     0.227280000000     0.007840000000     0.998158   
Ni96     Ni     0.756190000000     0.283190000000     0.507830000000     1.00526    
Ni97     Ni     0.533120000000     0.505240000000     0.257820000000     1.00206    
Ni98     Ni     0.977360000000     0.505240000000     0.257820000000     1.00572    
Ni99     Ni     0.533120000000     0.755250000000     0.257800000000     1.00184    
Ni100    Ni     0.977360000000     0.755240000000     0.257810000000     1.0056     
Ni101    Ni     0.727350000000     0.505610000000     0.257880000000     1.00258    
Ni102    Ni     0.783130000000     0.504850000000     0.257870000000     1.00278    
Ni103    Ni     0.727280000000     0.754270000000     0.257850000000     1.0052     
Ni104    Ni     0.783190000000     0.756190000000     0.257850000000     1.00563    
Ni105    Ni     0.005240000000     0.977350000000     0.507820000000     0.999842   
Ni106    Ni     0.005240000000     0.533120000000     0.007820000000     0.989455   
Ni107    Ni     0.005610000000     0.727350000000     0.507790000000     0.996643   
Ni108    Ni     0.004860000000     0.783130000000     0.007790000000     0.98991    
Ni109    Ni     0.755230000000     0.977350000000     0.007860000000     0.998786   
Ni110    Ni     0.755250000000     0.533110000000     0.507860000000     1.00177    
Ni111    Ni     0.754280000000     0.727280000000     0.507840000000     1.0049     
Ni112    Ni     0.756190000000     0.783190000000     0.007830000000     0.998528   
Ni113    Ni     0.533120000000     0.505240000000     0.757820000000     1.0022     
Ni114    Ni     0.977360000000     0.505240000000     0.757820000000     1.00571    
Ni115    Ni     0.533120000000     0.755250000000     0.757800000000     1.00198    
Ni116    Ni     0.977360000000     0.755240000000     0.757800000000     1.00561    
Ni117    Ni     0.727350000000     0.505610000000     0.757880000000     1.0026     
Ni118    Ni     0.783130000000     0.504850000000     0.757870000000     1.00288    
Ni119    Ni     0.727280000000     0.754270000000     0.757850000000     1.00526    
Ni120    Ni     0.783190000000     0.756190000000     0.757850000000     1.00569    
Ni121    Ni     0.005240000000     0.977350000000     0.007820000000     0.993037   
Ni122    Ni     0.005240000000     0.533120000000     0.507820000000     0.996274   
Ni123    Ni     0.005610000000     0.727350000000     0.007790000000     0.98966    
Ni124    Ni     0.004860000000     0.783130000000     0.507790000000     0.996878   
Ni125    Ni     0.755230000000     0.977350000000     0.507860000000     1.00569    
Ni126    Ni     0.755250000000     0.533110000000     0.007860000000     0.994871   
Ni127    Ni     0.754280000000     0.727280000000     0.007840000000     0.998081   
Ni128    Ni     0.756190000000     0.783190000000     0.507830000000     1.00535    
O1       O      0.031200000000     0.502090000000     0.302930000000    -0.444201   
O2       O      0.031200000000     0.008390000000     0.212710000000    -0.44463    
O3       O      0.031230000000     0.050140000000     0.260360000000    -0.444116   
O4       O      0.031220000000     0.460340000000     0.255280000000    -0.444875   
O5       O      0.479260000000     0.460340000000     0.260370000000    -0.446803   
O6       O      0.479270000000     0.050150000000     0.255280000000    -0.445791   
O7       O      0.479280000000     0.502090000000     0.212710000000    -0.446097   
O8       O      0.479290000000     0.008400000000     0.302930000000    -0.446571   
O9       O      0.031200000000     0.258410000000     0.302910000000    -0.444102   
O10      O      0.031200000000     0.252090000000     0.212690000000    -0.444192   
O11      O      0.031220000000     0.300150000000     0.255250000000    -0.44471    
O12      O      0.031230000000     0.210340000000     0.260350000000    -0.444826   
O13      O      0.479270000000     0.210340000000     0.255250000000    -0.446609   
O14      O      0.479260000000     0.300140000000     0.260360000000    -0.446951   
O15      O      0.479280000000     0.258390000000     0.212690000000    -0.445949   
O16      O      0.479280000000     0.252070000000     0.302920000000    -0.445994   
O17      O      0.229300000000     0.508580000000     0.212760000000    -0.44622    
O18      O      0.229220000000     0.002570000000     0.303000000000    -0.447444   
O19      O      0.230090000000     0.050450000000     0.260230000000    -0.446862   
O20      O      0.228390000000     0.460660000000     0.255530000000    -0.446262   
O21      O      0.280390000000     0.460010000000     0.260230000000    -0.447694   
O22      O      0.282080000000     0.049800000000     0.255520000000    -0.44556    
O23      O      0.281250000000     0.507890000000     0.302990000000    -0.446258   
O24      O      0.281170000000     0.001880000000     0.212750000000    -0.447642   
O25      O      0.229110000000     0.253820000000     0.303060000000    -0.446981   
O26      O      0.229130000000     0.253510000000     0.212650000000    -0.447174   
O27      O      0.230090000000     0.209690000000     0.258060000000    -0.451198   
O28      O      0.228180000000     0.299590000000     0.257660000000    -0.444758   
O29      O      0.280380000000     0.300770000000     0.258060000000    -0.451191   
O30      O      0.282290000000     0.210870000000     0.257650000000    -0.444769   
O31      O      0.281340000000     0.256950000000     0.212650000000    -0.447089   
O32      O      0.281370000000     0.256640000000     0.303050000000    -0.447061   
O33      O      0.008390000000     0.479280000000     0.462710000000    -0.446582   
O34      O      0.502090000000     0.479270000000     0.052930000000    -0.444876   
O35      O      0.460340000000     0.479250000000     0.505280000000    -0.446828   
O36      O      0.050140000000     0.479260000000     0.010370000000    -0.446019   
O37      O      0.050140000000     0.031220000000     0.505270000000    -0.444074   
O38      O      0.460340000000     0.031210000000     0.010370000000    -0.445031   
O39      O      0.008390000000     0.031190000000     0.052930000000    -0.443345   
O40      O      0.502090000000     0.031190000000     0.462710000000    -0.444259   
O41      O      0.002580000000     0.229220000000     0.462670000000    -0.44743    
O42      O      0.508590000000     0.229310000000     0.052910000000    -0.445166   
O43      O      0.460660000000     0.228400000000     0.510140000000    -0.446404   
O44      O      0.050450000000     0.230090000000     0.005420000000    -0.447108   
O45      O      0.049810000000     0.282080000000     0.510140000000    -0.445586   
O46      O      0.460020000000     0.280390000000     0.005430000000    -0.44814    
O47      O      0.001890000000     0.281170000000     0.052910000000    -0.446443   
O48      O      0.507900000000     0.281250000000     0.462660000000    -0.446162   
O49      O      0.258390000000     0.479270000000     0.052970000000    -0.444858   
O50      O      0.252070000000     0.479270000000     0.462750000000    -0.445966   
O51      O      0.300140000000     0.479250000000     0.005310000000    -0.447401   
O52      O      0.210340000000     0.479260000000     0.510410000000    -0.446651   
O53      O      0.210340000000     0.031220000000     0.005310000000    -0.445222   
O54      O      0.300150000000     0.031200000000     0.510410000000    -0.44485    
O55      O      0.258410000000     0.031190000000     0.462750000000    -0.444062   
O56      O      0.252090000000     0.031190000000     0.052970000000    -0.442963   
O57      O      0.253830000000     0.229100000000     0.462630000000    -0.446896   
O58      O      0.253510000000     0.229130000000     0.053040000000    -0.445758   
O59      O      0.209690000000     0.230090000000     0.507630000000    -0.451046   
O60      O      0.299600000000     0.228180000000     0.008030000000    -0.44499    
O61      O      0.300780000000     0.280380000000     0.507630000000    -0.451191   
O62      O      0.210880000000     0.282290000000     0.008030000000    -0.444942   
O63      O      0.256950000000     0.281350000000     0.053040000000    -0.445662   
O64      O      0.256650000000     0.281360000000     0.462630000000    -0.447012   
O65      O      0.031200000000     0.502090000000     0.802930000000    -0.444003   
O66      O      0.031200000000     0.008390000000     0.712710000000    -0.444587   
O67      O      0.031230000000     0.050140000000     0.760360000000    -0.444038   
O68      O      0.031220000000     0.460340000000     0.755270000000    -0.444817   
O69      O      0.479260000000     0.460340000000     0.760370000000    -0.446722   
O70      O      0.479270000000     0.050150000000     0.755270000000    -0.445708   
O71      O      0.479290000000     0.502090000000     0.712710000000    -0.446272   
O72      O      0.479290000000     0.008400000000     0.802940000000    -0.44631    
O73      O      0.031200000000     0.258410000000     0.802910000000    -0.443903   
O74      O      0.031200000000     0.252090000000     0.712690000000    -0.444186   
O75      O      0.031220000000     0.300150000000     0.755250000000    -0.444677   
O76      O      0.031230000000     0.210340000000     0.760350000000    -0.444761   
O77      O      0.479270000000     0.210340000000     0.755250000000    -0.446586   
O78      O      0.479260000000     0.300140000000     0.760360000000    -0.446882   
O79      O      0.479280000000     0.258390000000     0.712690000000    -0.446114   
O80      O      0.479290000000     0.252070000000     0.802920000000    -0.445867   
O81      O      0.229300000000     0.508580000000     0.712760000000    -0.446374   
O82      O      0.229220000000     0.002570000000     0.803000000000    -0.447252   
O83      O      0.230090000000     0.050450000000     0.760240000000    -0.446772   
O84      O      0.228390000000     0.460660000000     0.755530000000    -0.446221   
O85      O      0.280390000000     0.460010000000     0.760240000000    -0.447598   
O86      O      0.282080000000     0.049800000000     0.755520000000    -0.445514   
O87      O      0.281250000000     0.507890000000     0.802990000000    -0.446053   
O88      O      0.281170000000     0.001880000000     0.712750000000    -0.447577   
O89      O      0.229110000000     0.253820000000     0.803060000000    -0.446767   
O90      O      0.229130000000     0.253510000000     0.712650000000    -0.447204   
O91      O      0.230090000000     0.209690000000     0.758060000000    -0.451153   
O92      O      0.228180000000     0.299590000000     0.757660000000    -0.444699   
O93      O      0.280380000000     0.300770000000     0.758060000000    -0.451145   
O94      O      0.282290000000     0.210870000000     0.757650000000    -0.444709   
O95      O      0.281340000000     0.256950000000     0.712650000000    -0.447119   
O96      O      0.281370000000     0.256640000000     0.803050000000    -0.446847   
O97      O      0.008390000000     0.479280000000     0.962710000000    -0.440302   
O98      O      0.502090000000     0.479270000000     0.552930000000    -0.446073   
O99      O      0.460340000000     0.479250000000     0.005280000000    -0.447215   
O100     O      0.050140000000     0.479260000000     0.510370000000    -0.445879   
O101     O      0.050140000000     0.031220000000     0.005270000000    -0.444438   
O102     O      0.460340000000     0.031210000000     0.510370000000    -0.444886   
O103     O      0.008390000000     0.031190000000     0.552930000000    -0.44456    
O104     O      0.502090000000     0.031190000000     0.962710000000    -0.438003   
O105     O      0.002580000000     0.229220000000     0.962660000000    -0.441085   
O106     O      0.508590000000     0.229310000000     0.552910000000    -0.446431   
O107     O      0.460660000000     0.228400000000     0.010140000000    -0.44668    
O108     O      0.050450000000     0.230090000000     0.505420000000    -0.446873   
O109     O      0.049810000000     0.282080000000     0.010140000000    -0.445659   
O110     O      0.460020000000     0.280390000000     0.505430000000    -0.447735   
O111     O      0.001890000000     0.281170000000     0.552910000000    -0.44766    
O112     O      0.507900000000     0.281250000000     0.962660000000    -0.439924   
O113     O      0.258390000000     0.479270000000     0.552970000000    -0.446086   
O114     O      0.252070000000     0.479270000000     0.962740000000    -0.439629   
O115     O      0.300140000000     0.479250000000     0.505310000000    -0.44706    
O116     O      0.210340000000     0.479260000000     0.010410000000    -0.446775   
O117     O      0.210340000000     0.031220000000     0.505300000000    -0.444825   
O118     O      0.300150000000     0.031200000000     0.010410000000    -0.444999   
O119     O      0.258410000000     0.031190000000     0.962750000000    -0.437847   
O120     O      0.252090000000     0.031190000000     0.552970000000    -0.444158   
O121     O      0.253830000000     0.229100000000     0.962630000000    -0.440687   
O122     O      0.253510000000     0.229130000000     0.553040000000    -0.446972   
O123     O      0.209690000000     0.230090000000     0.007630000000    -0.451283   
O124     O      0.299600000000     0.228180000000     0.508040000000    -0.44474    
O125     O      0.300780000000     0.280380000000     0.007630000000    -0.451427   
O126     O      0.210880000000     0.282290000000     0.508030000000    -0.444696   
O127     O      0.256950000000     0.281350000000     0.553040000000    -0.446886   
O128     O      0.256650000000     0.281360000000     0.962630000000    -0.440806   
O129     O      0.031200000000     0.002090000000     0.302930000000    -0.445489   
O130     O      0.031200000000     0.508390000000     0.212710000000    -0.444257   
O131     O      0.031230000000     0.550140000000     0.260360000000    -0.444964   
O132     O      0.031220000000     0.960340000000     0.255280000000    -0.440143   
O133     O      0.479260000000     0.960340000000     0.260370000000    -0.442027   
O134     O      0.479270000000     0.550140000000     0.255280000000    -0.446736   
O135     O      0.479280000000     0.002090000000     0.212710000000    -0.447363   
O136     O      0.479280000000     0.508400000000     0.302930000000    -0.446051   
O137     O      0.031200000000     0.758410000000     0.302910000000    -0.44409    
O138     O      0.031200000000     0.752090000000     0.212690000000    -0.444175   
O139     O      0.031220000000     0.800150000000     0.255250000000    -0.44466    
O140     O      0.031230000000     0.710340000000     0.260350000000    -0.44483    
O141     O      0.479270000000     0.710340000000     0.255250000000    -0.446613   
O142     O      0.479260000000     0.800140000000     0.260360000000    -0.446901   
O143     O      0.479280000000     0.758390000000     0.212690000000    -0.445933   
O144     O      0.479280000000     0.752070000000     0.302920000000    -0.445978   
O145     O      0.229300000000     0.008580000000     0.212760000000    -0.446588   
O146     O      0.229220000000     0.502570000000     0.303000000000    -0.44618    
O147     O      0.230090000000     0.550450000000     0.260230000000    -0.447758   
O148     O      0.228390000000     0.960660000000     0.255530000000    -0.441509   
O149     O      0.280390000000     0.960010000000     0.260240000000    -0.442921   
O150     O      0.282080000000     0.549800000000     0.255520000000    -0.446441   
O151     O      0.281250000000     0.007890000000     0.302990000000    -0.446621   
O152     O      0.281170000000     0.501880000000     0.212750000000    -0.446354   
O153     O      0.229110000000     0.753820000000     0.303060000000    -0.446971   
O154     O      0.229130000000     0.753510000000     0.212650000000    -0.44715    
O155     O      0.230090000000     0.709690000000     0.258060000000    -0.451207   
O156     O      0.228180000000     0.799590000000     0.257660000000    -0.4447     
O157     O      0.280380000000     0.800770000000     0.258060000000    -0.451136   
O158     O      0.282290000000     0.710870000000     0.257650000000    -0.444777   
O159     O      0.281340000000     0.756960000000     0.212650000000    -0.447053   
O160     O      0.281370000000     0.756630000000     0.303050000000    -0.447059   
O161     O      0.008390000000     0.979280000000     0.462710000000    -0.441318   
O162     O      0.502090000000     0.979270000000     0.052930000000    -0.43952    
O163     O      0.460340000000     0.979250000000     0.505280000000    -0.441508   
O164     O      0.050140000000     0.979260000000     0.010370000000    -0.440697   
O165     O      0.050140000000     0.531220000000     0.505270000000    -0.445976   
O166     O      0.460340000000     0.531210000000     0.010370000000    -0.446933   
O167     O      0.008390000000     0.531190000000     0.052930000000    -0.445275   
O168     O      0.502090000000     0.531190000000     0.462710000000    -0.446268   
O169     O      0.002580000000     0.729220000000     0.462670000000    -0.447384   
O170     O      0.508590000000     0.729310000000     0.052910000000    -0.445093   
O171     O      0.460660000000     0.728390000000     0.510140000000    -0.446215   
O172     O      0.050450000000     0.730090000000     0.005420000000    -0.447095   
O173     O      0.049810000000     0.782080000000     0.510140000000    -0.44556    
O174     O      0.460020000000     0.780390000000     0.005430000000    -0.44804    
O175     O      0.001890000000     0.781180000000     0.052910000000    -0.446223   
O176     O      0.507900000000     0.781260000000     0.462670000000    -0.445994   
O177     O      0.258390000000     0.979270000000     0.052970000000    -0.439516   
O178     O      0.252070000000     0.979270000000     0.462750000000    -0.4406     
O179     O      0.300140000000     0.979240000000     0.005310000000    -0.441921   
O180     O      0.210340000000     0.979260000000     0.510410000000    -0.441317   
O181     O      0.210340000000     0.531220000000     0.005310000000    -0.447095   
O182     O      0.300150000000     0.531200000000     0.510410000000    -0.44678    
O183     O      0.258410000000     0.531190000000     0.462750000000    -0.445951   
O184     O      0.252090000000     0.531190000000     0.052970000000    -0.444858   
O185     O      0.253830000000     0.729100000000     0.462630000000    -0.446897   
O186     O      0.253510000000     0.729130000000     0.053040000000    -0.445756   
O187     O      0.209690000000     0.730090000000     0.507630000000    -0.451044   
O188     O      0.299600000000     0.728180000000     0.008030000000    -0.44499    
O189     O      0.300780000000     0.780380000000     0.507630000000    -0.451163   
O190     O      0.210880000000     0.782290000000     0.008030000000    -0.444905   
O191     O      0.256950000000     0.781350000000     0.053040000000    -0.445618   
O192     O      0.256650000000     0.781360000000     0.462630000000    -0.446971   
O193     O      0.031200000000     0.002090000000     0.802930000000    -0.44529    
O194     O      0.031200000000     0.508390000000     0.712710000000    -0.444213   
O195     O      0.031230000000     0.550140000000     0.760360000000    -0.444886   
O196     O      0.031220000000     0.960340000000     0.755270000000    -0.440088   
O197     O      0.479260000000     0.960340000000     0.760370000000    -0.441942   
O198     O      0.479270000000     0.550140000000     0.755270000000    -0.446658   
O199     O      0.479290000000     0.002090000000     0.712710000000    -0.44753    
O200     O      0.479290000000     0.508400000000     0.802940000000    -0.445967   
O201     O      0.031200000000     0.758410000000     0.802910000000    -0.443892   
O202     O      0.031200000000     0.752090000000     0.712690000000    -0.444168   
O203     O      0.031220000000     0.800150000000     0.755250000000    -0.444628   
O204     O      0.031230000000     0.710340000000     0.760350000000    -0.444765   
O205     O      0.479270000000     0.710340000000     0.755250000000    -0.446585   
O206     O      0.479260000000     0.800140000000     0.760360000000    -0.446728   
O207     O      0.479280000000     0.758390000000     0.712690000000    -0.446094   
O208     O      0.479290000000     0.752070000000     0.802920000000    -0.445847   
O209     O      0.229300000000     0.008580000000     0.712760000000    -0.44674    
O210     O      0.229220000000     0.502570000000     0.803000000000    -0.445985   
O211     O      0.230090000000     0.550450000000     0.760240000000    -0.447667   
O212     O      0.228390000000     0.960660000000     0.755530000000    -0.441477   
O213     O      0.280390000000     0.960010000000     0.760240000000    -0.442853   
O214     O      0.282080000000     0.549800000000     0.755520000000    -0.446391   
O215     O      0.281250000000     0.007890000000     0.802990000000    -0.44643    
O216     O      0.281170000000     0.501880000000     0.712750000000    -0.446298   
O217     O      0.229110000000     0.753820000000     0.803060000000    -0.446752   
O218     O      0.229130000000     0.753510000000     0.712650000000    -0.447184   
O219     O      0.230090000000     0.709690000000     0.758060000000    -0.451161   
O220     O      0.228180000000     0.799590000000     0.757660000000    -0.444641   
O221     O      0.280380000000     0.800770000000     0.758060000000    -0.451091   
O222     O      0.282290000000     0.710870000000     0.757650000000    -0.444718   
O223     O      0.281340000000     0.756960000000     0.712650000000    -0.447087   
O224     O      0.281370000000     0.756630000000     0.803050000000    -0.446841   
O225     O      0.008390000000     0.979280000000     0.962710000000    -0.435078   
O226     O      0.502090000000     0.979270000000     0.552930000000    -0.440728   
O227     O      0.460340000000     0.979250000000     0.005280000000    -0.441883   
O228     O      0.050140000000     0.979260000000     0.510370000000    -0.440544   
O229     O      0.050140000000     0.531220000000     0.005270000000    -0.446338   
O230     O      0.460340000000     0.531210000000     0.510370000000    -0.446757   
O231     O      0.008390000000     0.531190000000     0.552930000000    -0.446498   
O232     O      0.502090000000     0.531190000000     0.962710000000    -0.440029   
O233     O      0.002580000000     0.729220000000     0.962660000000    -0.441072   
O234     O      0.508590000000     0.729310000000     0.552910000000    -0.446351   
O235     O      0.460660000000     0.728390000000     0.010140000000    -0.446497   
O236     O      0.050450000000     0.730090000000     0.505420000000    -0.446854   
O237     O      0.049810000000     0.782080000000     0.010140000000    -0.445611   
O238     O      0.460020000000     0.780390000000     0.505430000000    -0.447651   
O239     O      0.001890000000     0.781180000000     0.552910000000    -0.447472   
O240     O      0.507900000000     0.781250000000     0.962660000000    -0.439875   
O241     O      0.258390000000     0.979270000000     0.552970000000    -0.440731   
O242     O      0.252070000000     0.979270000000     0.962740000000    -0.434301   
O243     O      0.300140000000     0.979240000000     0.505310000000    -0.441566   
O244     O      0.210340000000     0.979260000000     0.010410000000    -0.441455   
O245     O      0.210340000000     0.531220000000     0.505300000000    -0.446701   
O246     O      0.300150000000     0.531200000000     0.010410000000    -0.446925   
O247     O      0.258410000000     0.531190000000     0.962750000000    -0.439718   
O248     O      0.252090000000     0.531190000000     0.552970000000    -0.446061   
O249     O      0.253830000000     0.729100000000     0.962630000000    -0.440689   
O250     O      0.253510000000     0.729130000000     0.553040000000    -0.446972   
O251     O      0.209690000000     0.730090000000     0.007630000000    -0.451281   
O252     O      0.299600000000     0.728180000000     0.508040000000    -0.44474    
O253     O      0.300780000000     0.780380000000     0.007630000000    -0.451398   
O254     O      0.210880000000     0.782290000000     0.508030000000    -0.444658   
O255     O      0.256950000000     0.781350000000     0.553040000000    -0.446842   
O256     O      0.256650000000     0.781360000000     0.962630000000    -0.440771   
O257     O      0.531200000000     0.502090000000     0.302930000000    -0.446108   
O258     O      0.531200000000     0.008390000000     0.212710000000    -0.446458   
O259     O      0.531230000000     0.050140000000     0.260360000000    -0.445978   
O260     O      0.531220000000     0.460340000000     0.255270000000    -0.446724   
O261     O      0.979260000000     0.460340000000     0.260370000000    -0.441484   
O262     O      0.979270000000     0.050150000000     0.255280000000    -0.440468   
O263     O      0.979290000000     0.502090000000     0.212710000000    -0.440912   
O264     O      0.979280000000     0.008400000000     0.302930000000    -0.441057   
O265     O      0.531200000000     0.258410000000     0.302910000000    -0.445998   
O266     O      0.531200000000     0.252090000000     0.212690000000    -0.446036   
O267     O      0.531220000000     0.300150000000     0.255250000000    -0.446581   
O268     O      0.531230000000     0.210340000000     0.260350000000    -0.446692   
O269     O      0.979270000000     0.210340000000     0.255250000000    -0.441286   
O270     O      0.979260000000     0.300140000000     0.260360000000    -0.44162    
O271     O      0.979290000000     0.258390000000     0.212690000000    -0.440762   
O272     O      0.979280000000     0.252070000000     0.302920000000    -0.440649   
O273     O      0.729300000000     0.508580000000     0.212760000000    -0.446247   
O274     O      0.729220000000     0.002570000000     0.303000000000    -0.447452   
O275     O      0.730090000000     0.050450000000     0.260230000000    -0.446863   
O276     O      0.728390000000     0.460660000000     0.255530000000    -0.446265   
O277     O      0.780390000000     0.460010000000     0.260230000000    -0.447659   
O278     O      0.782080000000     0.049800000000     0.255520000000    -0.445523   
O279     O      0.781250000000     0.507890000000     0.302990000000    -0.44621    
O280     O      0.781170000000     0.001880000000     0.212750000000    -0.447402   
O281     O      0.729110000000     0.253820000000     0.303060000000    -0.446977   
O282     O      0.729130000000     0.253510000000     0.212650000000    -0.447173   
O283     O      0.730090000000     0.209690000000     0.258060000000    -0.451194   
O284     O      0.728180000000     0.299590000000     0.257660000000    -0.444758   
O285     O      0.780380000000     0.300770000000     0.258060000000    -0.451163   
O286     O      0.782290000000     0.210870000000     0.257650000000    -0.44474    
O287     O      0.781340000000     0.256950000000     0.212650000000    -0.447047   
O288     O      0.781370000000     0.256640000000     0.303050000000    -0.447018   
O289     O      0.508400000000     0.479280000000     0.462710000000    -0.446158   
O290     O      0.002090000000     0.479270000000     0.052930000000    -0.446165   
O291     O      0.960340000000     0.479250000000     0.505280000000    -0.442087   
O292     O      0.550140000000     0.479260000000     0.010370000000    -0.446891   
O293     O      0.550140000000     0.031220000000     0.505270000000    -0.44495    
O294     O      0.960340000000     0.031210000000     0.010370000000    -0.440283   
O295     O      0.508390000000     0.031190000000     0.052930000000    -0.442973   
O296     O      0.002090000000     0.031190000000     0.462710000000    -0.445557   
O297     O      0.502580000000     0.229220000000     0.462670000000    -0.446152   
O298     O      0.008590000000     0.229310000000     0.052910000000    -0.445539   
O299     O      0.960660000000     0.228400000000     0.510140000000    -0.441802   
O300     O      0.550450000000     0.230090000000     0.005420000000    -0.448098   
O301     O      0.549810000000     0.282080000000     0.510140000000    -0.446484   
O302     O      0.960020000000     0.280390000000     0.005430000000    -0.443377   
O303     O      0.501890000000     0.281170000000     0.052910000000    -0.445156   
O304     O      0.007900000000     0.281250000000     0.462660000000    -0.44654    
O305     O      0.758390000000     0.479270000000     0.052970000000    -0.444819   
O306     O      0.752080000000     0.479270000000     0.462750000000    -0.445989   
O307     O      0.800140000000     0.479250000000     0.005310000000    -0.447189   
O308     O      0.710340000000     0.479260000000     0.510410000000    -0.44679    
O309     O      0.710340000000     0.031220000000     0.005310000000    -0.445235   
O310     O      0.800150000000     0.031200000000     0.510410000000    -0.444776   
O311     O      0.758410000000     0.031190000000     0.462750000000    -0.444045   
O312     O      0.752090000000     0.031190000000     0.052970000000    -0.442917   
O313     O      0.753830000000     0.229100000000     0.462630000000    -0.446877   
O314     O      0.753510000000     0.229130000000     0.053040000000    -0.445738   
O315     O      0.709690000000     0.230090000000     0.507630000000    -0.451067   
O316     O      0.799600000000     0.228180000000     0.008030000000    -0.444919   
O317     O      0.800780000000     0.280380000000     0.507630000000    -0.451013   
O318     O      0.710880000000     0.282290000000     0.008030000000    -0.445062   
O319     O      0.756950000000     0.281350000000     0.053040000000    -0.445645   
O320     O      0.756650000000     0.281360000000     0.462630000000    -0.446993   
O321     O      0.531200000000     0.502090000000     0.802930000000    -0.445988   
O322     O      0.531200000000     0.008390000000     0.712710000000    -0.446566   
O323     O      0.531230000000     0.050140000000     0.760370000000    -0.445882   
O324     O      0.531220000000     0.460340000000     0.755270000000    -0.446688   
O325     O      0.979260000000     0.460340000000     0.760370000000    -0.441417   
O326     O      0.979270000000     0.050150000000     0.755270000000    -0.440417   
O327     O      0.979280000000     0.502090000000     0.712710000000    -0.44077    
O328     O      0.979280000000     0.008400000000     0.802930000000    -0.440872   
O329     O      0.531200000000     0.258410000000     0.802910000000    -0.445864   
O330     O      0.531200000000     0.252090000000     0.712690000000    -0.446094   
O331     O      0.531220000000     0.300150000000     0.755250000000    -0.446547   
O332     O      0.531230000000     0.210340000000     0.760350000000    -0.446626   
O333     O      0.979270000000     0.210340000000     0.755250000000    -0.441269   
O334     O      0.979260000000     0.300140000000     0.760360000000    -0.441556   
O335     O      0.979280000000     0.258390000000     0.712690000000    -0.440758   
O336     O      0.979280000000     0.252070000000     0.802920000000    -0.440358   
O337     O      0.729300000000     0.508580000000     0.712760000000    -0.446273   
O338     O      0.729220000000     0.002570000000     0.803000000000    -0.447251   
O339     O      0.730090000000     0.050450000000     0.760240000000    -0.44677    
O340     O      0.728390000000     0.460660000000     0.755530000000    -0.446215   
O341     O      0.780390000000     0.460010000000     0.760240000000    -0.447568   
O342     O      0.782080000000     0.049800000000     0.755520000000    -0.445478   
O343     O      0.781250000000     0.507890000000     0.802990000000    -0.446017   
O344     O      0.781170000000     0.001880000000     0.712750000000    -0.447529   
O345     O      0.729110000000     0.253820000000     0.803060000000    -0.446766   
O346     O      0.729130000000     0.253510000000     0.712650000000    -0.447202   
O347     O      0.730090000000     0.209690000000     0.758060000000    -0.451148   
O348     O      0.728180000000     0.299590000000     0.757660000000    -0.444699   
O349     O      0.780380000000     0.300770000000     0.758060000000    -0.451117   
O350     O      0.782290000000     0.210870000000     0.757650000000    -0.44468    
O351     O      0.781340000000     0.256950000000     0.712650000000    -0.447076   
O352     O      0.781370000000     0.256640000000     0.803050000000    -0.446806   
O353     O      0.508400000000     0.479280000000     0.962710000000    -0.43991    
O354     O      0.002090000000     0.479270000000     0.552930000000    -0.447384   
O355     O      0.960340000000     0.479250000000     0.005280000000    -0.442443   
O356     O      0.550140000000     0.479260000000     0.510370000000    -0.446727   
O357     O      0.550140000000     0.031220000000     0.005270000000    -0.445315   
O358     O      0.960340000000     0.031210000000     0.510370000000    -0.440144   
O359     O      0.508390000000     0.031190000000     0.552930000000    -0.444189   
O360     O      0.002090000000     0.031190000000     0.962710000000    -0.439292   
O361     O      0.502580000000     0.229220000000     0.962660000000    -0.439826   
O362     O      0.008590000000     0.229310000000     0.552910000000    -0.446791   
O363     O      0.960660000000     0.228400000000     0.010140000000    -0.441918   
O364     O      0.550450000000     0.230090000000     0.505420000000    -0.447889   
O365     O      0.549810000000     0.282080000000     0.010140000000    -0.446616   
O366     O      0.960020000000     0.280390000000     0.505430000000    -0.443027   
O367     O      0.501890000000     0.281170000000     0.552910000000    -0.446379   
O368     O      0.007900000000     0.281250000000     0.962660000000    -0.440292   
O369     O      0.758390000000     0.479270000000     0.552970000000    -0.446066   
O370     O      0.752080000000     0.479270000000     0.962740000000    -0.439679   
O371     O      0.800140000000     0.479250000000     0.505310000000    -0.446878   
O372     O      0.710330000000     0.479260000000     0.010410000000    -0.446853   
O373     O      0.710340000000     0.031220000000     0.505300000000    -0.444857   
O374     O      0.800150000000     0.031200000000     0.010410000000    -0.444968   
O375     O      0.758410000000     0.031190000000     0.962740000000    -0.437788   
O376     O      0.752090000000     0.031190000000     0.552970000000    -0.444139   
O377     O      0.753830000000     0.229100000000     0.962630000000    -0.440604   
O378     O      0.753510000000     0.229130000000     0.553040000000    -0.44695    
O379     O      0.709690000000     0.230090000000     0.007630000000    -0.451303   
O380     O      0.799600000000     0.228180000000     0.508040000000    -0.44467    
O381     O      0.800780000000     0.280380000000     0.007630000000    -0.451249   
O382     O      0.710880000000     0.282290000000     0.508030000000    -0.444816   
O383     O      0.756950000000     0.281350000000     0.553040000000    -0.446867   
O384     O      0.756650000000     0.281360000000     0.962630000000    -0.440723   
O385     O      0.531200000000     0.002090000000     0.302930000000    -0.44746    
O386     O      0.531200000000     0.508390000000     0.212710000000    -0.446085   
O387     O      0.531230000000     0.550140000000     0.260360000000    -0.446829   
O388     O      0.531220000000     0.960340000000     0.255270000000    -0.441979   
O389     O      0.979260000000     0.960340000000     0.260370000000    -0.43674    
O390     O      0.979270000000     0.550140000000     0.255280000000    -0.44141    
O391     O      0.979290000000     0.002090000000     0.212710000000    -0.442179   
O392     O      0.979280000000     0.508400000000     0.302930000000    -0.440702   
O393     O      0.531200000000     0.758410000000     0.302910000000    -0.445987   
O394     O      0.531200000000     0.752090000000     0.212690000000    -0.446014   
O395     O      0.531220000000     0.800150000000     0.255250000000    -0.446529   
O396     O      0.531230000000     0.710340000000     0.260350000000    -0.446696   
O397     O      0.979270000000     0.710340000000     0.255250000000    -0.44129    
O398     O      0.979260000000     0.800140000000     0.260360000000    -0.441577   
O399     O      0.979290000000     0.758390000000     0.212690000000    -0.440752   
O400     O      0.979280000000     0.752070000000     0.302920000000    -0.440631   
O401     O      0.729300000000     0.008580000000     0.212760000000    -0.446607   
O402     O      0.729220000000     0.502570000000     0.303000000000    -0.446184   
O403     O      0.730090000000     0.550450000000     0.260230000000    -0.447758   
O404     O      0.728390000000     0.960660000000     0.255530000000    -0.441519   
O405     O      0.780390000000     0.960010000000     0.260230000000    -0.442915   
O406     O      0.782080000000     0.549800000000     0.255520000000    -0.4464     
O407     O      0.781250000000     0.007890000000     0.302990000000    -0.446587   
O408     O      0.781170000000     0.501880000000     0.212750000000    -0.446121   
O409     O      0.729110000000     0.753820000000     0.303060000000    -0.446962   
O410     O      0.729130000000     0.753510000000     0.212650000000    -0.447153   
O411     O      0.730090000000     0.709690000000     0.258060000000    -0.451202   
O412     O      0.728180000000     0.799590000000     0.257660000000    -0.4447     
O413     O      0.780380000000     0.800770000000     0.258060000000    -0.451108   
O414     O      0.782290000000     0.710870000000     0.257650000000    -0.444748   
O415     O      0.781340000000     0.756960000000     0.212650000000    -0.447015   
O416     O      0.781370000000     0.756630000000     0.303050000000    -0.447012   
O417     O      0.508400000000     0.979280000000     0.462710000000    -0.440906   
O418     O      0.002090000000     0.979270000000     0.052930000000    -0.440818   
O419     O      0.960340000000     0.979250000000     0.505280000000    -0.436778   
O420     O      0.550140000000     0.979260000000     0.010370000000    -0.441559   
O421     O      0.550140000000     0.531220000000     0.505270000000    -0.446823   
O422     O      0.960340000000     0.531210000000     0.010370000000    -0.44217    
O423     O      0.508390000000     0.531190000000     0.052930000000    -0.444907   
O424     O      0.002090000000     0.531190000000     0.462710000000    -0.447599   
O425     O      0.502580000000     0.729220000000     0.462670000000    -0.446037   
O426     O      0.008590000000     0.729310000000     0.052910000000    -0.445466   
O427     O      0.960660000000     0.728390000000     0.510140000000    -0.441619   
O428     O      0.550450000000     0.730090000000     0.005420000000    -0.448084   
O429     O      0.549810000000     0.782080000000     0.510140000000    -0.446451   
O430     O      0.960020000000     0.780390000000     0.005430000000    -0.443284   
O431     O      0.501890000000     0.781180000000     0.052910000000    -0.444936   
O432     O      0.007900000000     0.781250000000     0.462670000000    -0.446549   
O433     O      0.758390000000     0.979270000000     0.052970000000    -0.439511   
O434     O      0.752080000000     0.979270000000     0.462750000000    -0.440638   
O435     O      0.800140000000     0.979250000000     0.005310000000    -0.441916   
O436     O      0.710340000000     0.979260000000     0.510410000000    -0.441461   
O437     O      0.710340000000     0.531220000000     0.005310000000    -0.44713    
O438     O      0.800150000000     0.531200000000     0.510410000000    -0.446709   
O439     O      0.758410000000     0.531190000000     0.462750000000    -0.445946   
O440     O      0.752090000000     0.531190000000     0.052970000000    -0.444813   
O441     O      0.753830000000     0.729100000000     0.462630000000    -0.446878   
O442     O      0.753510000000     0.729130000000     0.053040000000    -0.445737   
O443     O      0.709690000000     0.730090000000     0.507630000000    -0.451064   
O444     O      0.799600000000     0.728180000000     0.008030000000    -0.444919   
O445     O      0.800780000000     0.780380000000     0.507630000000    -0.450985   
O446     O      0.710880000000     0.782290000000     0.008030000000    -0.445025   
O447     O      0.756950000000     0.781350000000     0.053040000000    -0.445602   
O448     O      0.756650000000     0.781360000000     0.462630000000    -0.446953   
O449     O      0.531200000000     0.002090000000     0.802930000000    -0.447273   
O450     O      0.531200000000     0.508390000000     0.712710000000    -0.446195   
O451     O      0.531230000000     0.550140000000     0.760370000000    -0.446735   
O452     O      0.531220000000     0.960340000000     0.755270000000    -0.441943   
O453     O      0.979260000000     0.960340000000     0.760370000000    -0.436676   
O454     O      0.979270000000     0.550140000000     0.755270000000    -0.441358   
O455     O      0.979280000000     0.002090000000     0.712710000000    -0.442038   
O456     O      0.979280000000     0.508400000000     0.802930000000    -0.440517   
O457     O      0.531200000000     0.758410000000     0.802910000000    -0.445857   
O458     O      0.531200000000     0.752090000000     0.712690000000    -0.446075   
O459     O      0.531220000000     0.800150000000     0.755250000000    -0.446601   
O460     O      0.531230000000     0.710340000000     0.760350000000    -0.446635   
O461     O      0.979270000000     0.710340000000     0.755250000000    -0.441273   
O462     O      0.979260000000     0.800140000000     0.760360000000    -0.441514   
O463     O      0.979280000000     0.758390000000     0.712690000000    -0.440748   
O464     O      0.979280000000     0.752070000000     0.802920000000    -0.440343   
O465     O      0.729300000000     0.008580000000     0.712760000000    -0.446744   
O466     O      0.729220000000     0.502570000000     0.803000000000    -0.445979   
O467     O      0.730090000000     0.550450000000     0.760240000000    -0.447662   
O468     O      0.728390000000     0.960660000000     0.755530000000    -0.441478   
O469     O      0.780390000000     0.960010000000     0.760240000000    -0.442825   
O470     O      0.782080000000     0.549800000000     0.755520000000    -0.446359   
O471     O      0.781250000000     0.007890000000     0.802990000000    -0.446388   
O472     O      0.781170000000     0.501880000000     0.712750000000    -0.446356   
O473     O      0.729110000000     0.753820000000     0.803060000000    -0.446751   
O474     O      0.729130000000     0.753510000000     0.712650000000    -0.447182   
O475     O      0.730090000000     0.709690000000     0.758060000000    -0.451157   
O476     O      0.728180000000     0.799590000000     0.757660000000    -0.444641   
O477     O      0.780380000000     0.800770000000     0.758060000000    -0.451063   
O478     O      0.782290000000     0.710870000000     0.757650000000    -0.444689   
O479     O      0.781340000000     0.756960000000     0.712650000000    -0.447044   
O480     O      0.781370000000     0.756630000000     0.803050000000    -0.4468     
O481     O      0.508400000000     0.979280000000     0.962710000000    -0.434671   
O482     O      0.002090000000     0.979270000000     0.552930000000    -0.442024   
O483     O      0.960340000000     0.979250000000     0.005280000000    -0.437147   
O484     O      0.550140000000     0.979260000000     0.510370000000    -0.441406   
O485     O      0.550140000000     0.531220000000     0.005270000000    -0.44722    
O486     O      0.960340000000     0.531210000000     0.510370000000    -0.442036   
O487     O      0.508390000000     0.531190000000     0.552930000000    -0.446095   
O488     O      0.002090000000     0.531190000000     0.962710000000    -0.441315   
O489     O      0.502580000000     0.729220000000     0.962660000000    -0.439813   
O490     O      0.008590000000     0.729310000000     0.552910000000    -0.446718   
O491     O      0.960660000000     0.728390000000     0.010140000000    -0.441739   
O492     O      0.550450000000     0.730090000000     0.505420000000    -0.447867   
O493     O      0.549810000000     0.782080000000     0.010140000000    -0.446567   
O494     O      0.960020000000     0.780390000000     0.505430000000    -0.442956   
O495     O      0.501890000000     0.781180000000     0.552910000000    -0.446182   
O496     O      0.007900000000     0.781250000000     0.962660000000    -0.440243   
O497     O      0.758390000000     0.979270000000     0.552970000000    -0.440716   
O498     O      0.752080000000     0.979270000000     0.962740000000    -0.434395   
O499     O      0.800140000000     0.979240000000     0.505310000000    -0.441386   
O500     O      0.710340000000     0.979260000000     0.010410000000    -0.44161    
O501     O      0.710340000000     0.531220000000     0.505300000000    -0.446729   
O502     O      0.800150000000     0.531200000000     0.010410000000    -0.446833   
O503     O      0.758410000000     0.531190000000     0.962740000000    -0.43967    
O504     O      0.752090000000     0.531190000000     0.552970000000    -0.446042   
O505     O      0.753830000000     0.729100000000     0.962630000000    -0.440687   
O506     O      0.753510000000     0.729130000000     0.553040000000    -0.446949   
O507     O      0.709690000000     0.730090000000     0.007630000000    -0.451301   
O508     O      0.799600000000     0.728180000000     0.508040000000    -0.44467    
O509     O      0.800780000000     0.780380000000     0.007630000000    -0.451221   
O510     O      0.710880000000     0.782290000000     0.508030000000    -0.444779   
O511     O      0.756950000000     0.781350000000     0.553040000000    -0.446823   
O512     O      0.756650000000     0.781360000000     0.962630000000    -0.440771   


