data_structure

_audit_creation_method RASPA-1.0
_audit_creation_date 2023-5-19
_audit_author_name 'Poobodin Mano'

_cell_length_a    42.3786
_cell_length_b    42.3484
_cell_length_c    42.4082
_cell_angle_alpha 90
_cell_angle_beta  90
_cell_angle_gamma 90
_cell_volume      76108.6

_symmetry_cell_setting          triclinic
_symmetry_space_group_name_Hall 'P 1'
_symmetry_space_group_name_H-M  'P 1'
_symmetry_Int_Tables_number     1

_symmetry_equiv_pos_as_xyz 'x,y,z'

loop_
_atom_site_label
_atom_site_type_symbol
_atom_site_fract_x
_atom_site_fract_y
_atom_site_fract_z
_atom_site_charge
C1       C      0.488190000000     0.053670000000     0.238780000000     0.435233   
C2       C      0.996340000000     0.433590000000     0.244350000000     0.433373   
C3       C      0.431870000000     0.990010000000     0.240900000000     0.434004   
C4       C      0.051980000000     0.997570000000     0.242500000000     0.434475   
C5       C      0.992260000000     0.243180000000     0.183120000000     0.429118   
C6       C      0.996500000000     0.244130000000     0.303380000000     0.428335   
C7       C      0.498000000000     0.303770000000     0.243820000000     0.436439   
C8       C      0.490650000000     0.183530000000     0.242190000000     0.434142   
C9       C      0.301960000000     0.992910000000     0.241490000000     0.429315   
C10      C      0.181780000000     0.998300000000     0.243380000000     0.431628   
C11      C      0.240540000000     0.495660000000     0.182010000000     0.434765   
C12      C      0.242670000000     0.495170000000     0.302290000000     0.436321   
C13      C      0.238360000000     0.053910000000     0.994310000000     0.435223   
C14      C      0.244060000000     0.433810000000     0.489970000000     0.436448   
C15      C      0.240310000000     0.992690000000     0.052230000000     0.436478   
C16      C      0.242080000000     0.995640000000     0.432120000000     0.435129   
C17      C      0.992110000000     0.240540000000     0.053340000000     0.434866   
C18      C      0.496880000000     0.244580000000     0.433200000000     0.435371   
C19      C      0.054290000000     0.245400000000     0.995050000000     0.43388    
C20      C      0.434010000000     0.239940000000     0.991610000000     0.433537   
C21      C      0.184220000000     0.247870000000     0.993110000000     0.430913   
C22      C      0.304180000000     0.239610000000     0.991610000000     0.429843   
C23      C      0.240410000000     0.183800000000     0.494560000000     0.434541   
C24      C      0.247820000000     0.303820000000     0.489810000000     0.435958   
C25      C      0.385310000000     0.259290000000     0.010370000000     0.0388262  
C26      C      0.385990000000     0.217560000000     0.473430000000     0.030546   
C27      C      0.352500000000     0.257990000000     0.011340000000     0.0383422  
C28      C      0.352890000000     0.218380000000     0.471890000000     0.0539186  
C29      C      0.337210000000     0.196380000000     0.451000000000     0.0539189  
C30      C      0.103350000000     0.223230000000     0.480380000000     0.0368509  
C31      C      0.102290000000     0.271300000000     0.008570000000     0.0362028  
C32      C      0.136080000000     0.224980000000     0.478460000000     0.038312   
C33      C      0.135430000000     0.271620000000     0.009270000000     0.0587593  
C34      C      0.151090000000     0.297950000000     0.024430000000     0.0565257  
C35      C      0.266340000000     0.353020000000     0.508950000000     0.0382072  
C36      C      0.229090000000     0.351380000000     0.467610000000     0.0329422  
C37      C      0.266260000000     0.385980000000     0.507740000000     0.0361785  
C38      C      0.226500000000     0.384320000000     0.468510000000     0.0555661  
C39      C      0.204350000000     0.398910000000     0.447000000000     0.0572557  
C40      C      0.254300000000     0.134820000000     0.972160000000     0.0353288  
C41      C      0.223100000000     0.135780000000     0.018310000000     0.0341196  
C42      C      0.254430000000     0.102070000000     0.972790000000     0.0371831  
C43      C      0.220840000000     0.102640000000     0.017420000000     0.0584806  
C44      C      0.203440000000     0.086830000000     0.042190000000     0.0553706  
C45      C      0.223640000000     0.475200000000     0.350840000000     0.0389885  
C46      C      0.261970000000     0.015620000000     0.350400000000     0.0357525  
C47      C      0.222230000000     0.477040000000     0.383690000000     0.035491   
C48      C      0.263190000000     0.015070000000     0.383390000000     0.0591936  
C49      C      0.284920000000     0.036420000000     0.398880000000     0.0573785  
C50      C      0.254810000000     0.518210000000     0.132820000000     0.0361597  
C51      C      0.224140000000     0.471660000000     0.134370000000     0.0306489  
C52      C      0.256110000000     0.516140000000     0.099980000000     0.0376169  
C53      C      0.223050000000     0.471030000000     0.101390000000     0.0557095  
C54      C      0.206520000000     0.445150000000     0.086360000000     0.0559719  
C55      C      0.476770000000     0.263290000000     0.352010000000     0.0351453  
C56      C      0.519750000000     0.227820000000     0.351430000000     0.0307077  
C57      C      0.478280000000     0.264680000000     0.384880000000     0.0343665  
C58      C      0.519300000000     0.226680000000     0.384440000000     0.053905   
C59      C      0.542270000000     0.206650000000     0.399880000000     0.0555472  
C60      C      0.968990000000     0.257480000000     0.134250000000     0.0350334  
C61      C      0.013450000000     0.223870000000     0.135270000000     0.0361661  
C62      C      0.970090000000     0.257730000000     0.101320000000     0.0358816  
C63      C      0.012880000000     0.221740000000     0.102320000000     0.0582509  
C64      C      0.037070000000     0.203040000000     0.087030000000     0.0581465  
C65      C      0.100900000000     0.482750000000     0.220350000000     0.0375689  
C66      C      0.099930000000     0.015310000000     0.265590000000     0.0365468  
C67      C      0.133700000000     0.482000000000     0.221550000000     0.0374435  
C68      C      0.133020000000     0.017010000000     0.265130000000     0.0584155  
C69      C      0.148680000000     0.034980000000     0.289590000000     0.0556359  
C70      C      0.382760000000     0.471640000000     0.220840000000     0.0352548  
C71      C      0.384280000000     0.009780000000     0.261420000000     0.034956   
C72      C      0.349750000000     0.471140000000     0.222700000000     0.0340657  
C73      C      0.351410000000     0.011800000000     0.261060000000     0.0563938  
C74      C      0.336830000000     0.034140000000     0.282430000000     0.055318   
C75      C      0.483280000000     0.384740000000     0.268280000000     0.0342237  
C76      C      0.015680000000     0.385710000000     0.222970000000     0.0345082  
C77      C      0.482550000000     0.351810000000     0.266910000000     0.0355006  
C78      C      0.017430000000     0.352670000000     0.223250000000     0.0569013  
C79      C      0.035400000000     0.337240000000     0.198630000000     0.0545508  
C80      C      0.465910000000     0.134990000000     0.255430000000     0.0353052  
C81      C      0.010840000000     0.135340000000     0.222480000000     0.0345584  
C82      C      0.466300000000     0.101990000000     0.255410000000     0.036405   
C83      C      0.009580000000     0.102390000000     0.220040000000     0.0579717  
C84      C      0.033690000000     0.086720000000     0.201560000000     0.0568743  
C85      C      0.488190000000     0.053670000000     0.738780000000     0.435245   
C86      C      0.996340000000     0.433590000000     0.744350000000     0.433382   
C87      C      0.431870000000     0.990010000000     0.740900000000     0.434009   
C88      C      0.051980000000     0.997570000000     0.742500000000     0.434496   
C89      C      0.992260000000     0.243180000000     0.683120000000     0.429011   
C90      C      0.996500000000     0.244130000000     0.803380000000     0.428522   
C91      C      0.498000000000     0.303770000000     0.743820000000     0.436436   
C92      C      0.490650000000     0.183530000000     0.742190000000     0.434129   
C93      C      0.301960000000     0.992910000000     0.741490000000     0.429295   
C94      C      0.181780000000     0.998300000000     0.743380000000     0.43162    
C95      C      0.240540000000     0.495660000000     0.682010000000     0.434791   
C96      C      0.242670000000     0.495170000000     0.802290000000     0.436329   
C97      C      0.238360000000     0.053910000000     0.494300000000     0.436078   
C98      C      0.244060000000     0.433810000000     0.989970000000     0.435664   
C99      C      0.240310000000     0.992690000000     0.552230000000     0.437247   
C100     C      0.242080000000     0.995640000000     0.932120000000     0.434834   
C101     C      0.992110000000     0.240540000000     0.553340000000     0.435606   
C102     C      0.496880000000     0.244580000000     0.933200000000     0.434964   
C103     C      0.054290000000     0.245400000000     0.495050000000     0.434664   
C104     C      0.434010000000     0.239940000000     0.491610000000     0.434266   
C105     C      0.184220000000     0.247870000000     0.493110000000     0.43714    
C106     C      0.304180000000     0.239610000000     0.491610000000     0.435455   
C107     C      0.240410000000     0.183800000000     0.994560000000     0.428995   
C108     C      0.247820000000     0.303820000000     0.989810000000     0.429954   
C109     C      0.385310000000     0.259290000000     0.510370000000     0.0347991  
C110     C      0.385990000000     0.217560000000     0.973430000000     0.0298807  
C111     C      0.352500000000     0.257990000000     0.511340000000     0.0348733  
C112     C      0.352890000000     0.218380000000     0.971890000000     0.053156   
C113     C      0.337210000000     0.196380000000     0.951000000000     0.0536171  
C114     C      0.103350000000     0.223230000000     0.980380000000     0.0361378  
C115     C      0.102290000000     0.271300000000     0.508570000000     0.0320602  
C116     C      0.136080000000     0.224980000000     0.978460000000     0.0372986  
C117     C      0.135430000000     0.271620000000     0.509270000000     0.0557896  
C118     C      0.151090000000     0.297950000000     0.524430000000     0.0555329  
C119     C      0.266340000000     0.353020000000     0.008950000000     0.0415653  
C120     C      0.229090000000     0.351380000000     0.967610000000     0.0319285  
C121     C      0.266260000000     0.385980000000     0.007740000000     0.0401942  
C122     C      0.226500000000     0.384320000000     0.968510000000     0.0549589  
C123     C      0.204350000000     0.398910000000     0.947000000000     0.0568251  
C124     C      0.254300000000     0.134820000000     0.472170000000     0.0362417  
C125     C      0.223100000000     0.135780000000     0.518310000000     0.0305157  
C126     C      0.254430000000     0.102070000000     0.472790000000     0.0377114  
C127     C      0.220840000000     0.102640000000     0.517420000000     0.0549793  
C128     C      0.203440000000     0.086830000000     0.542190000000     0.0544807  
C129     C      0.223640000000     0.475200000000     0.850840000000     0.0389616  
C130     C      0.261970000000     0.015620000000     0.850400000000     0.0357412  
C131     C      0.222230000000     0.477040000000     0.883690000000     0.0354132  
C132     C      0.263190000000     0.015070000000     0.883390000000     0.0591165  
C133     C      0.284920000000     0.036420000000     0.898890000000     0.0572947  
C134     C      0.254810000000     0.518210000000     0.632820000000     0.0359998  
C135     C      0.224140000000     0.471660000000     0.634370000000     0.0305256  
C136     C      0.256110000000     0.516140000000     0.599980000000     0.0374898  
C137     C      0.223050000000     0.471030000000     0.601390000000     0.0556141  
C138     C      0.206520000000     0.445150000000     0.586360000000     0.055357   
C139     C      0.476770000000     0.263290000000     0.852010000000     0.0351026  
C140     C      0.519750000000     0.227820000000     0.851430000000     0.03068    
C141     C      0.478280000000     0.264680000000     0.884880000000     0.0342758  
C142     C      0.519300000000     0.226680000000     0.884440000000     0.0538385  
C143     C      0.542270000000     0.206650000000     0.899870000000     0.0553892  
C144     C      0.968990000000     0.257480000000     0.634250000000     0.0348798  
C145     C      0.013450000000     0.223870000000     0.635270000000     0.0360392  
C146     C      0.970090000000     0.257730000000     0.601320000000     0.035694   
C147     C      0.012880000000     0.221740000000     0.602320000000     0.0581438  
C148     C      0.037070000000     0.203040000000     0.587030000000     0.0574472  
C149     C      0.100900000000     0.482750000000     0.720360000000     0.0376087  
C150     C      0.099930000000     0.015310000000     0.765590000000     0.0365395  
C151     C      0.133700000000     0.482000000000     0.721550000000     0.03738    
C152     C      0.133020000000     0.017010000000     0.765130000000     0.0583975  
C153     C      0.148680000000     0.034980000000     0.789590000000     0.0555846  
C154     C      0.382760000000     0.471640000000     0.720840000000     0.0351886  
C155     C      0.384280000000     0.009780000000     0.761420000000     0.0349238  
C156     C      0.349750000000     0.471140000000     0.722700000000     0.0340101  
C157     C      0.351410000000     0.011800000000     0.761060000000     0.0563689  
C158     C      0.336830000000     0.034140000000     0.782430000000     0.0552626  
C159     C      0.483280000000     0.384740000000     0.768280000000     0.0341827  
C160     C      0.015680000000     0.385710000000     0.722970000000     0.0344368  
C161     C      0.482550000000     0.351810000000     0.766910000000     0.0354677  
C162     C      0.017430000000     0.352670000000     0.723260000000     0.0569457  
C163     C      0.035400000000     0.337240000000     0.698630000000     0.0544172  
C164     C      0.465910000000     0.134990000000     0.755430000000     0.0352354  
C165     C      0.010840000000     0.135340000000     0.722480000000     0.034519   
C166     C      0.466300000000     0.101990000000     0.755400000000     0.0364133  
C167     C      0.009580000000     0.102390000000     0.720040000000     0.0579254  
C168     C      0.033690000000     0.086720000000     0.701550000000     0.056755   
C169     C      0.488190000000     0.553670000000     0.238780000000     0.43607    
C170     C      0.996340000000     0.933590000000     0.244350000000     0.433008   
C171     C      0.431870000000     0.490010000000     0.240900000000     0.434755   
C172     C      0.051980000000     0.497570000000     0.242500000000     0.435313   
C173     C      0.992260000000     0.743180000000     0.183120000000     0.429094   
C174     C      0.996500000000     0.744130000000     0.303380000000     0.428308   
C175     C      0.498000000000     0.803770000000     0.243820000000     0.436436   
C176     C      0.490650000000     0.683530000000     0.242190000000     0.434102   
C177     C      0.301960000000     0.492910000000     0.241490000000     0.43549    
C178     C      0.181780000000     0.498300000000     0.243380000000     0.437763   
C179     C      0.240540000000     0.995660000000     0.182010000000     0.428739   
C180     C      0.242670000000     0.995170000000     0.302290000000     0.430117   
C181     C      0.238360000000     0.553910000000     0.994310000000     0.435946   
C182     C      0.244060000000     0.933810000000     0.489970000000     0.436098   
C183     C      0.240310000000     0.492690000000     0.052230000000     0.437328   
C184     C      0.242080000000     0.495640000000     0.432120000000     0.435999   
C185     C      0.992110000000     0.740540000000     0.053340000000     0.434877   
C186     C      0.496880000000     0.744580000000     0.433200000000     0.435388   
C187     C      0.054290000000     0.745400000000     0.995050000000     0.4339     
C188     C      0.434010000000     0.739940000000     0.991610000000     0.433543   
C189     C      0.184220000000     0.747870000000     0.993110000000     0.430901   
C190     C      0.304180000000     0.739610000000     0.991610000000     0.429819   
C191     C      0.240410000000     0.683800000000     0.494560000000     0.434503   
C192     C      0.247820000000     0.803820000000     0.489810000000     0.435956   
C193     C      0.385310000000     0.759290000000     0.010370000000     0.0387941  
C194     C      0.385990000000     0.717560000000     0.473430000000     0.0304842  
C195     C      0.352500000000     0.757990000000     0.011340000000     0.0383083  
C196     C      0.352890000000     0.718380000000     0.471890000000     0.0538763  
C197     C      0.337210000000     0.696380000000     0.451000000000     0.0537882  
C198     C      0.103350000000     0.723230000000     0.480380000000     0.0368191  
C199     C      0.102290000000     0.771300000000     0.008570000000     0.0361956  
C200     C      0.136080000000     0.724980000000     0.478460000000     0.0382791  
C201     C      0.135430000000     0.771620000000     0.009270000000     0.0587496  
C202     C      0.151090000000     0.797950000000     0.024430000000     0.056478   
C203     C      0.266340000000     0.853020000000     0.508950000000     0.0381728  
C204     C      0.229090000000     0.851380000000     0.467610000000     0.0329182  
C205     C      0.266260000000     0.885970000000     0.507740000000     0.0360719  
C206     C      0.226500000000     0.884320000000     0.468510000000     0.0554949  
C207     C      0.204350000000     0.898910000000     0.447000000000     0.0571306  
C208     C      0.254300000000     0.634820000000     0.972160000000     0.0352006  
C209     C      0.223100000000     0.635780000000     0.018310000000     0.0340006  
C210     C      0.254430000000     0.602070000000     0.972790000000     0.0369883  
C211     C      0.220840000000     0.602640000000     0.017420000000     0.0583611  
C212     C      0.203440000000     0.586830000000     0.042190000000     0.0546897  
C213     C      0.223640000000     0.975200000000     0.350840000000     0.037987   
C214     C      0.261970000000     0.515630000000     0.350400000000     0.0320412  
C215     C      0.222230000000     0.977040000000     0.383690000000     0.0347377  
C216     C      0.263190000000     0.515070000000     0.383390000000     0.0556433  
C217     C      0.284920000000     0.536420000000     0.398880000000     0.0564213  
C218     C      0.254810000000     0.018210000000     0.132820000000     0.0397072  
C219     C      0.224140000000     0.971660000000     0.134370000000     0.0297363  
C220     C      0.256110000000     0.016140000000     0.099980000000     0.041746   
C221     C      0.223050000000     0.971030000000     0.101390000000     0.0551805  
C222     C      0.206520000000     0.945150000000     0.086360000000     0.0556886  
C223     C      0.476770000000     0.763290000000     0.352010000000     0.0351083  
C224     C      0.519750000000     0.727820000000     0.351430000000     0.0306665  
C225     C      0.478280000000     0.764680000000     0.384880000000     0.034327   
C226     C      0.519300000000     0.726680000000     0.384440000000     0.0538608  
C227     C      0.542270000000     0.706650000000     0.399880000000     0.0554055  
C228     C      0.968990000000     0.757480000000     0.134250000000     0.0349935  
C229     C      0.013450000000     0.723870000000     0.135270000000     0.0361337  
C230     C      0.970090000000     0.757730000000     0.101320000000     0.0358393  
C231     C      0.012880000000     0.721740000000     0.102320000000     0.0582094  
C232     C      0.037070000000     0.703040000000     0.087030000000     0.0579971  
C233     C      0.100900000000     0.982750000000     0.220350000000     0.0368612  
C234     C      0.099930000000     0.515310000000     0.265590000000     0.0322871  
C235     C      0.133700000000     0.982000000000     0.221550000000     0.0364404  
C236     C      0.133020000000     0.517010000000     0.265130000000     0.0553294  
C237     C      0.148680000000     0.534980000000     0.289590000000     0.0547113  
C238     C      0.382760000000     0.971640000000     0.220840000000     0.034608   
C239     C      0.384280000000     0.509780000000     0.261420000000     0.0306397  
C240     C      0.349750000000     0.971140000000     0.222700000000     0.0330561  
C241     C      0.351410000000     0.511800000000     0.261060000000     0.0533201  
C242     C      0.336830000000     0.534140000000     0.282430000000     0.054713   
C243     C      0.483280000000     0.884740000000     0.268280000000     0.0341386  
C244     C      0.015680000000     0.885710000000     0.222970000000     0.0344387  
C245     C      0.482550000000     0.851810000000     0.266910000000     0.0354536  
C246     C      0.017430000000     0.852670000000     0.223250000000     0.0568698  
C247     C      0.035400000000     0.837230000000     0.198630000000     0.0545117  
C248     C      0.465910000000     0.634990000000     0.255430000000     0.0351589  
C249     C      0.010840000000     0.635340000000     0.222480000000     0.0344336  
C250     C      0.466300000000     0.601990000000     0.255410000000     0.0362137  
C251     C      0.009580000000     0.602390000000     0.220040000000     0.057847   
C252     C      0.033690000000     0.586720000000     0.201560000000     0.0561295  
C253     C      0.488190000000     0.553670000000     0.738780000000     0.436084   
C254     C      0.996340000000     0.933590000000     0.744350000000     0.433017   
C255     C      0.431870000000     0.490010000000     0.740900000000     0.43476    
C256     C      0.051980000000     0.497570000000     0.742500000000     0.435336   
C257     C      0.992260000000     0.743180000000     0.683120000000     0.428988   
C258     C      0.996500000000     0.744130000000     0.803380000000     0.428495   
C259     C      0.498000000000     0.803770000000     0.743820000000     0.436434   
C260     C      0.490650000000     0.683530000000     0.742190000000     0.434088   
C261     C      0.301960000000     0.492910000000     0.741490000000     0.435483   
C262     C      0.181780000000     0.498300000000     0.743380000000     0.437766   
C263     C      0.240540000000     0.995660000000     0.682010000000     0.428751   
C264     C      0.242670000000     0.995170000000     0.802290000000     0.430116   
C265     C      0.238360000000     0.553910000000     0.494300000000     0.436804   
C266     C      0.244060000000     0.933810000000     0.989970000000     0.435315   
C267     C      0.240310000000     0.492690000000     0.552230000000     0.4381     
C268     C      0.242080000000     0.495640000000     0.932120000000     0.435704   
C269     C      0.992110000000     0.740540000000     0.553340000000     0.435618   
C270     C      0.496880000000     0.744580000000     0.933200000000     0.43498    
C271     C      0.054290000000     0.745400000000     0.495050000000     0.434686   
C272     C      0.434010000000     0.739940000000     0.491610000000     0.434273   
C273     C      0.184220000000     0.747870000000     0.493110000000     0.437139   
C274     C      0.304180000000     0.739610000000     0.491610000000     0.435443   
C275     C      0.240410000000     0.683800000000     0.994560000000     0.428943   
C276     C      0.247820000000     0.803820000000     0.989810000000     0.429943   
C277     C      0.385310000000     0.759290000000     0.510370000000     0.0347568  
C278     C      0.385990000000     0.717560000000     0.973430000000     0.0298178  
C279     C      0.352500000000     0.757990000000     0.511340000000     0.0348304  
C280     C      0.352890000000     0.718380000000     0.971890000000     0.0531123  
C281     C      0.337210000000     0.696380000000     0.951000000000     0.0534859  
C282     C      0.103350000000     0.723230000000     0.980380000000     0.0361048  
C283     C      0.102290000000     0.771300000000     0.508570000000     0.0320432  
C284     C      0.136080000000     0.724980000000     0.978460000000     0.0372638  
C285     C      0.135430000000     0.771620000000     0.509270000000     0.0557726  
C286     C      0.151090000000     0.797950000000     0.524430000000     0.0554834  
C287     C      0.266340000000     0.853020000000     0.008950000000     0.0415364  
C288     C      0.229090000000     0.851380000000     0.967610000000     0.0319039  
C289     C      0.266260000000     0.885970000000     0.007740000000     0.0400876  
C290     C      0.226500000000     0.884320000000     0.968510000000     0.0548872  
C291     C      0.204350000000     0.898910000000     0.947000000000     0.0567002  
C292     C      0.254300000000     0.634820000000     0.472170000000     0.0361163  
C293     C      0.223100000000     0.635780000000     0.518310000000     0.0303836  
C294     C      0.254430000000     0.602070000000     0.472790000000     0.0375181  
C295     C      0.220840000000     0.602640000000     0.517420000000     0.0548412  
C296     C      0.203440000000     0.586830000000     0.542190000000     0.0537925  
C297     C      0.223640000000     0.975200000000     0.850840000000     0.0379595  
C298     C      0.261970000000     0.515630000000     0.850400000000     0.0320243  
C299     C      0.222230000000     0.977040000000     0.883690000000     0.0346598  
C300     C      0.263190000000     0.515070000000     0.883390000000     0.0555648  
C301     C      0.284920000000     0.536420000000     0.898890000000     0.0563357  
C302     C      0.254810000000     0.018210000000     0.632820000000     0.0395584  
C303     C      0.224140000000     0.971660000000     0.634370000000     0.0296085  
C304     C      0.256110000000     0.016140000000     0.599980000000     0.0416409  
C305     C      0.223050000000     0.971030000000     0.601390000000     0.0550841  
C306     C      0.206520000000     0.945150000000     0.586360000000     0.0550727  
C307     C      0.476770000000     0.763290000000     0.852010000000     0.0350656  
C308     C      0.519750000000     0.727820000000     0.851430000000     0.0306387  
C309     C      0.478280000000     0.764680000000     0.884880000000     0.0342363  
C310     C      0.519300000000     0.726680000000     0.884440000000     0.0537942  
C311     C      0.542270000000     0.706650000000     0.899870000000     0.0552471  
C312     C      0.968990000000     0.757480000000     0.634250000000     0.0348395  
C313     C      0.013450000000     0.723870000000     0.635270000000     0.0360062  
C314     C      0.970090000000     0.757730000000     0.601320000000     0.035651   
C315     C      0.012880000000     0.721740000000     0.602320000000     0.0581016  
C316     C      0.037070000000     0.703040000000     0.587030000000     0.0572951  
C317     C      0.100900000000     0.982750000000     0.720360000000     0.0369002  
C318     C      0.099930000000     0.515310000000     0.765590000000     0.03227    
C319     C      0.133700000000     0.982000000000     0.721550000000     0.0363753  
C320     C      0.133020000000     0.517010000000     0.765130000000     0.0553042  
C321     C      0.148680000000     0.534980000000     0.789590000000     0.0546584  
C322     C      0.382760000000     0.971640000000     0.720840000000     0.0345407  
C323     C      0.384280000000     0.509780000000     0.761420000000     0.030597   
C324     C      0.349750000000     0.971140000000     0.722700000000     0.0329987  
C325     C      0.351410000000     0.511800000000     0.761060000000     0.0532876  
C326     C      0.336830000000     0.534140000000     0.782430000000     0.0546564  
C327     C      0.483280000000     0.884740000000     0.768280000000     0.0340975  
C328     C      0.015680000000     0.885710000000     0.722970000000     0.0343671  
C329     C      0.482550000000     0.851810000000     0.766910000000     0.0354207  
C330     C      0.017430000000     0.852670000000     0.723260000000     0.0569142  
C331     C      0.035400000000     0.837230000000     0.698630000000     0.054378   
C332     C      0.465910000000     0.634990000000     0.755430000000     0.0350886  
C333     C      0.010840000000     0.635340000000     0.722480000000     0.0343939  
C334     C      0.466300000000     0.601990000000     0.755400000000     0.0362215  
C335     C      0.009580000000     0.602390000000     0.720040000000     0.0577999  
C336     C      0.033690000000     0.586720000000     0.701550000000     0.0560076  
C337     C      0.988190000000     0.053670000000     0.238780000000     0.434438   
C338     C      0.496340000000     0.433590000000     0.244350000000     0.434159   
C339     C      0.931870000000     0.990010000000     0.240900000000     0.43365    
C340     C      0.551980000000     0.997570000000     0.242500000000     0.435178   
C341     C      0.492260000000     0.243180000000     0.183120000000     0.435227   
C342     C      0.496500000000     0.244130000000     0.303380000000     0.434315   
C343     C      0.998000000000     0.303770000000     0.243820000000     0.430361   
C344     C      0.990650000000     0.183530000000     0.242190000000     0.428072   
C345     C      0.801960000000     0.992910000000     0.241490000000     0.429303   
C346     C      0.681780000000     0.998300000000     0.243380000000     0.431588   
C347     C      0.740540000000     0.495660000000     0.182010000000     0.434754   
C348     C      0.742670000000     0.495170000000     0.302290000000     0.436317   
C349     C      0.738360000000     0.053910000000     0.994310000000     0.435235   
C350     C      0.744060000000     0.433810000000     0.489970000000     0.436474   
C351     C      0.740310000000     0.992690000000     0.052230000000     0.436498   
C352     C      0.742080000000     0.995640000000     0.432120000000     0.435146   
C353     C      0.492110000000     0.240540000000     0.053340000000     0.435698   
C354     C      0.996880000000     0.244580000000     0.433200000000     0.434525   
C355     C      0.554290000000     0.245400000000     0.995050000000     0.434589   
C356     C      0.934010000000     0.239940000000     0.991610000000     0.433182   
C357     C      0.684220000000     0.247870000000     0.993110000000     0.430879   
C358     C      0.804180000000     0.239610000000     0.991610000000     0.429829   
C359     C      0.740410000000     0.183800000000     0.494560000000     0.43453    
C360     C      0.747830000000     0.303820000000     0.489810000000     0.435942   
C361     C      0.885310000000     0.259290000000     0.010370000000     0.0387521  
C362     C      0.885990000000     0.217560000000     0.473430000000     0.0304568  
C363     C      0.852500000000     0.257990000000     0.011340000000     0.0383047  
C364     C      0.852900000000     0.218380000000     0.471890000000     0.0538571  
C365     C      0.837210000000     0.196380000000     0.451000000000     0.0538356  
C366     C      0.603350000000     0.223230000000     0.480380000000     0.0367141  
C367     C      0.602290000000     0.271300000000     0.008570000000     0.0360535  
C368     C      0.636080000000     0.224980000000     0.478460000000     0.0381884  
C369     C      0.635430000000     0.271620000000     0.009270000000     0.0586593  
C370     C      0.651090000000     0.297950000000     0.024430000000     0.0562859  
C371     C      0.766340000000     0.353020000000     0.508950000000     0.0381655  
C372     C      0.729090000000     0.351380000000     0.467610000000     0.0328953  
C373     C      0.766260000000     0.385980000000     0.507740000000     0.0361587  
C374     C      0.726510000000     0.384320000000     0.468510000000     0.055577   
C375     C      0.704350000000     0.398910000000     0.447000000000     0.0570906  
C376     C      0.754300000000     0.134820000000     0.972160000000     0.0352938  
C377     C      0.723100000000     0.135780000000     0.018310000000     0.0340892  
C378     C      0.754430000000     0.102070000000     0.972790000000     0.0371392  
C379     C      0.720840000000     0.102640000000     0.017420000000     0.0584425  
C380     C      0.703440000000     0.086830000000     0.042190000000     0.0552428  
C381     C      0.723640000000     0.475200000000     0.350840000000     0.0389528  
C382     C      0.761970000000     0.015620000000     0.350400000000     0.0357417  
C383     C      0.722230000000     0.477040000000     0.383690000000     0.0354311  
C384     C      0.763190000000     0.015070000000     0.383390000000     0.0591625  
C385     C      0.784920000000     0.036420000000     0.398880000000     0.0573371  
C386     C      0.754810000000     0.518210000000     0.132820000000     0.0361209  
C387     C      0.724140000000     0.471660000000     0.134370000000     0.0306104  
C388     C      0.756110000000     0.516140000000     0.099980000000     0.0375976  
C389     C      0.723050000000     0.471030000000     0.101390000000     0.0556681  
C390     C      0.706520000000     0.445150000000     0.086360000000     0.0558365  
C391     C      0.976770000000     0.263290000000     0.352010000000     0.0342688  
C392     C      0.019740000000     0.227820000000     0.351430000000     0.0344782  
C393     C      0.978280000000     0.264680000000     0.384880000000     0.0337037  
C394     C      0.019300000000     0.226680000000     0.384440000000     0.0574748  
C395     C      0.042270000000     0.206650000000     0.399880000000     0.0565241  
C396     C      0.468990000000     0.257480000000     0.134250000000     0.0360591  
C397     C      0.513450000000     0.223870000000     0.135270000000     0.0325132  
C398     C      0.470090000000     0.257730000000     0.101320000000     0.0365425  
C399     C      0.512880000000     0.221740000000     0.102320000000     0.0547035  
C400     C      0.537070000000     0.203040000000     0.087030000000     0.0572617  
C401     C      0.600900000000     0.482750000000     0.220350000000     0.0374145  
C402     C      0.599930000000     0.015310000000     0.265590000000     0.0364007  
C403     C      0.633700000000     0.482000000000     0.221550000000     0.0372941  
C404     C      0.633020000000     0.017010000000     0.265130000000     0.0583086  
C405     C      0.648680000000     0.034980000000     0.289590000000     0.0553893  
C406     C      0.882760000000     0.471640000000     0.220840000000     0.0351715  
C407     C      0.884280000000     0.009780000000     0.261420000000     0.0348769  
C408     C      0.849750000000     0.471140000000     0.222700000000     0.034024   
C409     C      0.851410000000     0.011800000000     0.261060000000     0.0563739  
C410     C      0.836830000000     0.034140000000     0.282430000000     0.0552376  
C411     C      0.983280000000     0.384740000000     0.268280000000     0.0335676  
C412     C      0.515680000000     0.385710000000     0.222970000000     0.030231   
C413     C      0.982550000000     0.351810000000     0.266910000000     0.034509   
C414     C      0.517430000000     0.352670000000     0.223250000000     0.0538234  
C415     C      0.535400000000     0.337240000000     0.198630000000     0.0536799  
C416     C      0.965910000000     0.134990000000     0.255430000000     0.0343802  
C417     C      0.510840000000     0.135340000000     0.222480000000     0.030931   
C418     C      0.966300000000     0.101990000000     0.255410000000     0.0357542  
C419     C      0.509580000000     0.102390000000     0.220040000000     0.0543795  
C420     C      0.533690000000     0.086720000000     0.201560000000     0.0559905  
C421     C      0.988190000000     0.053670000000     0.738780000000     0.434449   
C422     C      0.496340000000     0.433590000000     0.744350000000     0.434169   
C423     C      0.931870000000     0.990010000000     0.740900000000     0.433654   
C424     C      0.551980000000     0.997570000000     0.742500000000     0.435201   
C425     C      0.492260000000     0.243180000000     0.683120000000     0.435135   
C426     C      0.496500000000     0.244130000000     0.803380000000     0.434514   
C427     C      0.998000000000     0.303770000000     0.743820000000     0.430347   
C428     C      0.990650000000     0.183530000000     0.742190000000     0.428045   
C429     C      0.801960000000     0.992910000000     0.741490000000     0.429284   
C430     C      0.681780000000     0.998300000000     0.743380000000     0.43158    
C431     C      0.740540000000     0.495660000000     0.682010000000     0.43478    
C432     C      0.742670000000     0.495170000000     0.802290000000     0.436325   
C433     C      0.738360000000     0.053910000000     0.494300000000     0.436092   
C434     C      0.744060000000     0.433810000000     0.989970000000     0.435689   
C435     C      0.740310000000     0.992690000000     0.552230000000     0.437269   
C436     C      0.742080000000     0.995640000000     0.932120000000     0.43485    
C437     C      0.492110000000     0.240540000000     0.553340000000     0.436438   
C438     C      0.996880000000     0.244580000000     0.933200000000     0.434119   
C439     C      0.554290000000     0.245400000000     0.495050000000     0.435376   
C440     C      0.934010000000     0.239940000000     0.491610000000     0.433909   
C441     C      0.684220000000     0.247870000000     0.493110000000     0.437122   
C442     C      0.804180000000     0.239610000000     0.491610000000     0.43545    
C443     C      0.740410000000     0.183800000000     0.994560000000     0.428972   
C444     C      0.747830000000     0.303820000000     0.989810000000     0.429925   
C445     C      0.885310000000     0.259290000000     0.510370000000     0.0347221  
C446     C      0.885990000000     0.217560000000     0.973430000000     0.0297921  
C447     C      0.852500000000     0.257990000000     0.511340000000     0.0348299  
C448     C      0.852900000000     0.218380000000     0.971890000000     0.0530935  
C449     C      0.837210000000     0.196380000000     0.951000000000     0.0535341  
C450     C      0.603350000000     0.223230000000     0.980380000000     0.035999   
C451     C      0.602290000000     0.271300000000     0.508570000000     0.0318891  
C452     C      0.636080000000     0.224980000000     0.978460000000     0.0371715  
C453     C      0.635430000000     0.271620000000     0.509270000000     0.0556787  
C454     C      0.651090000000     0.297950000000     0.524430000000     0.0552883  
C455     C      0.766340000000     0.353020000000     0.008950000000     0.0415323  
C456     C      0.729090000000     0.351380000000     0.967610000000     0.031879   
C457     C      0.766260000000     0.385980000000     0.007740000000     0.0401844  
C458     C      0.726510000000     0.384320000000     0.968510000000     0.0549689  
C459     C      0.704350000000     0.398910000000     0.947000000000     0.0566585  
C460     C      0.754300000000     0.134820000000     0.472170000000     0.0362082  
C461     C      0.723100000000     0.135780000000     0.518310000000     0.0304757  
C462     C      0.754430000000     0.102070000000     0.472790000000     0.0376683  
C463     C      0.720840000000     0.102640000000     0.517420000000     0.0549317  
C464     C      0.703440000000     0.086830000000     0.542190000000     0.0543493  
C465     C      0.723640000000     0.475200000000     0.850840000000     0.0389258  
C466     C      0.761970000000     0.015620000000     0.850400000000     0.0357303  
C467     C      0.722230000000     0.477040000000     0.883690000000     0.035353   
C468     C      0.763190000000     0.015070000000     0.883390000000     0.0590853  
C469     C      0.784920000000     0.036420000000     0.898890000000     0.0572534  
C470     C      0.754810000000     0.518210000000     0.632820000000     0.0359606  
C471     C      0.724140000000     0.471660000000     0.634370000000     0.0304867  
C472     C      0.756110000000     0.516140000000     0.599980000000     0.03747    
C473     C      0.723050000000     0.471030000000     0.601390000000     0.0555722  
C474     C      0.706520000000     0.445150000000     0.586360000000     0.0552193  
C475     C      0.976770000000     0.263290000000     0.852010000000     0.0342242  
C476     C      0.019740000000     0.227820000000     0.851430000000     0.0344543  
C477     C      0.978280000000     0.264680000000     0.884880000000     0.0336137  
C478     C      0.019300000000     0.226680000000     0.884440000000     0.0574112  
C479     C      0.042270000000     0.206650000000     0.899870000000     0.0563663  
C480     C      0.468990000000     0.257480000000     0.634250000000     0.0359089  
C481     C      0.513450000000     0.223870000000     0.635270000000     0.032373   
C482     C      0.470090000000     0.257730000000     0.601320000000     0.0363568  
C483     C      0.512880000000     0.221740000000     0.602320000000     0.0545772  
C484     C      0.537070000000     0.203040000000     0.587030000000     0.0565551  
C485     C      0.600900000000     0.482750000000     0.720360000000     0.0374538  
C486     C      0.599930000000     0.015310000000     0.765590000000     0.036393   
C487     C      0.633700000000     0.482000000000     0.721550000000     0.0372302  
C488     C      0.633020000000     0.017010000000     0.765130000000     0.0582904  
C489     C      0.648680000000     0.034980000000     0.789590000000     0.0553376  
C490     C      0.882760000000     0.471640000000     0.720840000000     0.035105   
C491     C      0.884280000000     0.009780000000     0.761420000000     0.0348446  
C492     C      0.849750000000     0.471140000000     0.722700000000     0.0339683  
C493     C      0.851410000000     0.011800000000     0.761060000000     0.056349   
C494     C      0.836830000000     0.034140000000     0.782430000000     0.0551823  
C495     C      0.983280000000     0.384740000000     0.768280000000     0.0335258  
C496     C      0.515680000000     0.385710000000     0.722970000000     0.0301497  
C497     C      0.982550000000     0.351810000000     0.766910000000     0.0344747  
C498     C      0.517430000000     0.352670000000     0.723260000000     0.0538588  
C499     C      0.535400000000     0.337240000000     0.698630000000     0.0535425  
C500     C      0.965910000000     0.134990000000     0.755430000000     0.0343085  
C501     C      0.510840000000     0.135340000000     0.722480000000     0.0308821  
C502     C      0.966300000000     0.101990000000     0.755400000000     0.0357616  
C503     C      0.509580000000     0.102390000000     0.720040000000     0.0543235  
C504     C      0.533690000000     0.086720000000     0.701550000000     0.0558673  
C505     C      0.988190000000     0.553670000000     0.238780000000     0.435275   
C506     C      0.496340000000     0.933590000000     0.244350000000     0.433792   
C507     C      0.931870000000     0.490010000000     0.240900000000     0.4344     
C508     C      0.551980000000     0.497570000000     0.242500000000     0.436018   
C509     C      0.492260000000     0.743180000000     0.183120000000     0.435216   
C510     C      0.496500000000     0.744130000000     0.303380000000     0.434301   
C511     C      0.998000000000     0.803770000000     0.243820000000     0.43035    
C512     C      0.990650000000     0.683530000000     0.242190000000     0.428015   
C513     C      0.801960000000     0.492910000000     0.241490000000     0.435488   
C514     C      0.681780000000     0.498300000000     0.243380000000     0.437738   
C515     C      0.740540000000     0.995660000000     0.182010000000     0.428716   
C516     C      0.742670000000     0.995170000000     0.302290000000     0.4301     
C517     C      0.738360000000     0.553910000000     0.994310000000     0.435961   
C518     C      0.744060000000     0.933810000000     0.489970000000     0.436123   
C519     C      0.740310000000     0.492690000000     0.052230000000     0.43735    
C520     C      0.742080000000     0.495640000000     0.432120000000     0.436018   
C521     C      0.492110000000     0.740540000000     0.053340000000     0.43571    
C522     C      0.996880000000     0.744580000000     0.433200000000     0.434541   
C523     C      0.554290000000     0.745400000000     0.995050000000     0.434611   
C524     C      0.934010000000     0.739940000000     0.991610000000     0.433187   
C525     C      0.684220000000     0.747870000000     0.993110000000     0.430867   
C526     C      0.804180000000     0.739610000000     0.991610000000     0.429805   
C527     C      0.740410000000     0.683800000000     0.494560000000     0.434493   
C528     C      0.747830000000     0.803820000000     0.489810000000     0.43594    
C529     C      0.885310000000     0.759290000000     0.010370000000     0.0387199  
C530     C      0.885990000000     0.717560000000     0.473430000000     0.0303947  
C531     C      0.852500000000     0.757990000000     0.011340000000     0.0382709  
C532     C      0.852900000000     0.718380000000     0.471890000000     0.0538147  
C533     C      0.837210000000     0.696380000000     0.451000000000     0.0537046  
C534     C      0.603350000000     0.723230000000     0.480380000000     0.036682   
C535     C      0.602290000000     0.771300000000     0.008570000000     0.036046   
C536     C      0.636080000000     0.724980000000     0.478460000000     0.0381551  
C537     C      0.635430000000     0.771620000000     0.009270000000     0.0586493  
C538     C      0.651090000000     0.797950000000     0.024430000000     0.0562377  
C539     C      0.766340000000     0.853020000000     0.508950000000     0.0381312  
C540     C      0.729090000000     0.851380000000     0.467610000000     0.0328713  
C541     C      0.766260000000     0.885970000000     0.507740000000     0.036052   
C542     C      0.726510000000     0.884320000000     0.468510000000     0.0555056  
C543     C      0.704350000000     0.898910000000     0.447000000000     0.0569651  
C544     C      0.754300000000     0.634820000000     0.972160000000     0.0351653  
C545     C      0.723100000000     0.635780000000     0.018310000000     0.0339697  
C546     C      0.754430000000     0.602070000000     0.972790000000     0.0369438  
C547     C      0.720840000000     0.602640000000     0.017420000000     0.0583225  
C548     C      0.703440000000     0.586830000000     0.042190000000     0.0545594  
C549     C      0.723640000000     0.975200000000     0.350840000000     0.0379493  
C550     C      0.761970000000     0.515630000000     0.350400000000     0.0320214  
C551     C      0.722230000000     0.977040000000     0.383690000000     0.0346764  
C552     C      0.763190000000     0.515070000000     0.383390000000     0.0556035  
C553     C      0.784920000000     0.536420000000     0.398880000000     0.056378   
C554     C      0.754810000000     0.018210000000     0.132820000000     0.0396774  
C555     C      0.724140000000     0.971660000000     0.134370000000     0.0296961  
C556     C      0.756110000000     0.016140000000     0.099980000000     0.0417363  
C557     C      0.723050000000     0.971030000000     0.101390000000     0.055138   
C558     C      0.706520000000     0.945150000000     0.086360000000     0.0555525  
C559     C      0.976770000000     0.763290000000     0.352010000000     0.0342304  
C560     C      0.019740000000     0.727820000000     0.351430000000     0.0344461  
C561     C      0.978280000000     0.764680000000     0.384880000000     0.0336635  
C562     C      0.019300000000     0.726680000000     0.384440000000     0.0574396  
C563     C      0.042270000000     0.706650000000     0.399880000000     0.0563861  
C564     C      0.468990000000     0.757480000000     0.134250000000     0.036021   
C565     C      0.513450000000     0.723870000000     0.135270000000     0.0324714  
C566     C      0.470090000000     0.757730000000     0.101320000000     0.0365011  
C567     C      0.512880000000     0.721740000000     0.102320000000     0.0546524  
C568     C      0.537070000000     0.703040000000     0.087030000000     0.0571088  
C569     C      0.600900000000     0.982750000000     0.220350000000     0.0367048  
C570     C      0.599930000000     0.515310000000     0.265590000000     0.032119   
C571     C      0.633700000000     0.982000000000     0.221550000000     0.0362877  
C572     C      0.633020000000     0.517010000000     0.265130000000     0.0552118  
C573     C      0.648680000000     0.534980000000     0.289590000000     0.0544602  
C574     C      0.882760000000     0.971640000000     0.220840000000     0.0345247  
C575     C      0.884280000000     0.509780000000     0.261420000000     0.0305568  
C576     C      0.849750000000     0.971140000000     0.222700000000     0.0330138  
C577     C      0.851410000000     0.511800000000     0.261060000000     0.0532954  
C578     C      0.836830000000     0.534140000000     0.282430000000     0.0546314  
C579     C      0.983280000000     0.884740000000     0.268280000000     0.0334828  
C580     C      0.515680000000     0.885710000000     0.222970000000     0.0301588  
C581     C      0.982550000000     0.851810000000     0.266910000000     0.0344616  
C582     C      0.517430000000     0.852670000000     0.223250000000     0.0537874  
C583     C      0.535400000000     0.837230000000     0.198630000000     0.0536386  
C584     C      0.965910000000     0.634990000000     0.255430000000     0.0342311  
C585     C      0.510840000000     0.635340000000     0.222480000000     0.0307925  
C586     C      0.966300000000     0.601990000000     0.255410000000     0.0355599  
C587     C      0.509580000000     0.602390000000     0.220040000000     0.0542364  
C588     C      0.533690000000     0.586720000000     0.201560000000     0.0552378  
C589     C      0.988190000000     0.553670000000     0.738780000000     0.435287   
C590     C      0.496340000000     0.933590000000     0.744350000000     0.433802   
C591     C      0.931870000000     0.490010000000     0.740900000000     0.434404   
C592     C      0.551980000000     0.497570000000     0.742500000000     0.436043   
C593     C      0.492260000000     0.743180000000     0.683120000000     0.435124   
C594     C      0.496500000000     0.744130000000     0.803380000000     0.434499   
C595     C      0.998000000000     0.803770000000     0.743820000000     0.430335   
C596     C      0.990650000000     0.683530000000     0.742190000000     0.427988   
C597     C      0.801960000000     0.492910000000     0.741490000000     0.43548    
C598     C      0.681780000000     0.498300000000     0.743380000000     0.437742   
C599     C      0.740540000000     0.995660000000     0.682010000000     0.428728   
C600     C      0.742670000000     0.995170000000     0.802290000000     0.430099   
C601     C      0.738360000000     0.553910000000     0.494300000000     0.43682    
C602     C      0.744060000000     0.933810000000     0.989970000000     0.435339   
C603     C      0.740310000000     0.492690000000     0.552230000000     0.438123   
C604     C      0.742080000000     0.495640000000     0.932120000000     0.435721   
C605     C      0.492110000000     0.740540000000     0.553340000000     0.436452   
C606     C      0.996880000000     0.744580000000     0.933200000000     0.434134   
C607     C      0.554290000000     0.745400000000     0.495050000000     0.435399   
C608     C      0.934010000000     0.739940000000     0.491610000000     0.433916   
C609     C      0.684220000000     0.747870000000     0.493110000000     0.437121   
C610     C      0.804180000000     0.739610000000     0.491610000000     0.435438   
C611     C      0.740410000000     0.683800000000     0.994560000000     0.42892    
C612     C      0.747830000000     0.803820000000     0.989810000000     0.429915   
C613     C      0.885310000000     0.759290000000     0.510370000000     0.0346796  
C614     C      0.885990000000     0.717560000000     0.973430000000     0.029729   
C615     C      0.852500000000     0.757990000000     0.511340000000     0.034787   
C616     C      0.852900000000     0.718380000000     0.971890000000     0.0530497  
C617     C      0.837210000000     0.696380000000     0.951000000000     0.0534025  
C618     C      0.603350000000     0.723230000000     0.980380000000     0.0359656  
C619     C      0.602290000000     0.771300000000     0.508570000000     0.0318717  
C620     C      0.636080000000     0.724980000000     0.978460000000     0.0371363  
C621     C      0.635430000000     0.771620000000     0.509270000000     0.0556615  
C622     C      0.651090000000     0.797950000000     0.524430000000     0.0552384  
C623     C      0.766340000000     0.853020000000     0.008950000000     0.0415034  
C624     C      0.729090000000     0.851380000000     0.967610000000     0.0318545  
C625     C      0.766260000000     0.885970000000     0.007740000000     0.0400778  
C626     C      0.726510000000     0.884320000000     0.968510000000     0.054897   
C627     C      0.704350000000     0.898910000000     0.947000000000     0.0565332  
C628     C      0.754300000000     0.634820000000     0.472170000000     0.0360824  
C629     C      0.723100000000     0.635780000000     0.518310000000     0.0303432  
C630     C      0.754430000000     0.602070000000     0.472790000000     0.0374744  
C631     C      0.720840000000     0.602640000000     0.517420000000     0.054793   
C632     C      0.703440000000     0.586830000000     0.542190000000     0.0536586  
C633     C      0.723640000000     0.975200000000     0.850840000000     0.0379218  
C634     C      0.761970000000     0.515630000000     0.850400000000     0.0320046  
C635     C      0.722230000000     0.977040000000     0.883690000000     0.0345983  
C636     C      0.763190000000     0.515070000000     0.883390000000     0.0555249  
C637     C      0.784920000000     0.536420000000     0.898890000000     0.0562925  
C638     C      0.754810000000     0.018210000000     0.632820000000     0.0395282  
C639     C      0.724140000000     0.971660000000     0.634370000000     0.0295679  
C640     C      0.756110000000     0.016140000000     0.599980000000     0.0416307  
C641     C      0.723050000000     0.971030000000     0.601390000000     0.0550412  
C642     C      0.706520000000     0.945150000000     0.586360000000     0.0549343  
C643     C      0.976770000000     0.763290000000     0.852010000000     0.0341858  
C644     C      0.019740000000     0.727820000000     0.851430000000     0.0344221  
C645     C      0.978280000000     0.764680000000     0.884880000000     0.0335734  
C646     C      0.019300000000     0.726680000000     0.884440000000     0.0573759  
C647     C      0.042270000000     0.706650000000     0.899870000000     0.056228   
C648     C      0.468990000000     0.757480000000     0.634250000000     0.0358703  
C649     C      0.513450000000     0.723870000000     0.635270000000     0.0323307  
C650     C      0.470090000000     0.757730000000     0.601320000000     0.0363148  
C651     C      0.512880000000     0.721740000000     0.602320000000     0.0545256  
C652     C      0.537070000000     0.703040000000     0.587030000000     0.0563994  
C653     C      0.600900000000     0.982750000000     0.720360000000     0.0367433  
C654     C      0.599930000000     0.515310000000     0.765590000000     0.0321016  
C655     C      0.633700000000     0.982000000000     0.721550000000     0.036222   
C656     C      0.633020000000     0.517010000000     0.765130000000     0.0551864  
C657     C      0.648680000000     0.534980000000     0.789590000000     0.0544069  
C658     C      0.882760000000     0.971640000000     0.720840000000     0.0344572  
C659     C      0.884280000000     0.509780000000     0.761420000000     0.030514   
C660     C      0.849750000000     0.971140000000     0.722700000000     0.0329563  
C661     C      0.851410000000     0.511800000000     0.761060000000     0.053263   
C662     C      0.836830000000     0.534140000000     0.782430000000     0.0545748  
C663     C      0.983280000000     0.884740000000     0.768280000000     0.0334408  
C664     C      0.515680000000     0.885710000000     0.722970000000     0.0300775  
C665     C      0.982550000000     0.851810000000     0.766910000000     0.0344273  
C666     C      0.517430000000     0.852670000000     0.723260000000     0.0538228  
C667     C      0.535400000000     0.837230000000     0.698630000000     0.0535011  
C668     C      0.965910000000     0.634990000000     0.755430000000     0.034159   
C669     C      0.510840000000     0.635340000000     0.722480000000     0.0307431  
C670     C      0.966300000000     0.601990000000     0.755400000000     0.0355668  
C671     C      0.509580000000     0.602390000000     0.720040000000     0.0541795  
C672     C      0.533690000000     0.586720000000     0.701550000000     0.055112   
H1       H      0.340150000000     0.274160000000     0.026910000000     0.0363568  
H2       H      0.397310000000     0.276050000000     0.025580000000     0.037427   
H3       H      0.398870000000     0.201130000000     0.458530000000     0.0439611  
H4       H      0.148560000000     0.206270000000     0.466180000000     0.0409825  
H5       H      0.091690000000     0.203430000000     0.469160000000     0.0510392  
H6       H      0.089380000000     0.290160000000     0.020190000000     0.0476309  
H7       H      0.281480000000     0.398750000000     0.523890000000     0.039668   
H8       H      0.281900000000     0.341370000000     0.525610000000     0.0379157  
H9       H      0.214240000000     0.338150000000     0.451420000000     0.0453266  
H10      H      0.267480000000     0.089650000000     0.954620000000     0.0467835  
H11      H      0.267540000000     0.146510000000     0.953660000000     0.0503444  
H12      H      0.210890000000     0.148710000000     0.036760000000     0.0456614  
H13      H      0.205740000000     0.461860000000     0.395980000000     0.0472173  
H14      H      0.207900000000     0.459040000000     0.338730000000     0.0410819  
H15      H      0.277370000000     0.031620000000     0.337670000000     0.0515295  
H16      H      0.269190000000     0.534040000000     0.087160000000     0.0401373  
H17      H      0.267500000000     0.537200000000     0.144400000000     0.0412645  
H18      H      0.211720000000     0.453450000000     0.147480000000     0.0447103  
H19      H      0.461590000000     0.279680000000     0.397210000000     0.0379873  
H20      H      0.459410000000     0.277740000000     0.339960000000     0.0377653  
H21      H      0.536620000000     0.213320000000     0.338670000000     0.0449229  
H22      H      0.952860000000     0.271840000000     0.088660000000     0.0361117  
H23      H      0.951280000000     0.271710000000     0.146050000000     0.0392314  
H24      H      0.031200000000     0.210620000000     0.148190000000     0.0454405  
H25      H      0.146210000000     0.468150000000     0.204010000000     0.038459   
H26      H      0.089120000000     0.469060000000     0.202210000000     0.0423483  
H27      H      0.086980000000     0.028250000000     0.283530000000     0.0462903  
H28      H      0.336860000000     0.455350000000     0.207200000000     0.0377316  
H29      H      0.394500000000     0.455850000000     0.204470000000     0.0376833  
H30      H      0.397460000000     0.025100000000     0.277240000000     0.0431281  
H31      H      0.468720000000     0.339160000000     0.284370000000     0.0355047  
H32      H      0.469570000000     0.396570000000     0.286370000000     0.0391479  
H33      H      0.028500000000     0.398670000000     0.204940000000     0.0442383  
H34      H      0.448710000000     0.089520000000     0.269240000000     0.0373301  
H35      H      0.448290000000     0.147070000000     0.269530000000     0.0404694  
H36      H      0.029050000000     0.148020000000     0.209620000000     0.0449024  
H37      H      0.340150000000     0.274160000000     0.526910000000     0.0362802  
H38      H      0.397310000000     0.276050000000     0.525580000000     0.0370782  
H39      H      0.398870000000     0.201130000000     0.958530000000     0.0437951  
H40      H      0.148560000000     0.206270000000     0.966180000000     0.0407464  
H41      H      0.091690000000     0.203430000000     0.969160000000     0.0507333  
H42      H      0.089380000000     0.290160000000     0.520190000000     0.0472383  
H43      H      0.281480000000     0.398750000000     0.023890000000     0.0400138  
H44      H      0.281900000000     0.341370000000     0.025610000000     0.0379872  
H45      H      0.214240000000     0.338150000000     0.951420000000     0.0451863  
H46      H      0.267480000000     0.089650000000     0.454620000000     0.0468626  
H47      H      0.267540000000     0.146510000000     0.453660000000     0.0503036  
H48      H      0.210890000000     0.148710000000     0.536760000000     0.0456671  
H49      H      0.205740000000     0.461860000000     0.895980000000     0.0471271  
H50      H      0.207900000000     0.459040000000     0.838730000000     0.041032   
H51      H      0.277370000000     0.031620000000     0.837670000000     0.0515031  
H52      H      0.269190000000     0.534040000000     0.587160000000     0.0395795  
H53      H      0.267500000000     0.537200000000     0.644400000000     0.0411131  
H54      H      0.211720000000     0.453450000000     0.647480000000     0.0446474  
H55      H      0.461590000000     0.279680000000     0.897210000000     0.0377924  
H56      H      0.459410000000     0.277740000000     0.839960000000     0.0376981  
H57      H      0.536620000000     0.213320000000     0.838670000000     0.044896   
H58      H      0.952860000000     0.271840000000     0.588660000000     0.0356334  
H59      H      0.951280000000     0.271710000000     0.646050000000     0.0390965  
H60      H      0.031200000000     0.210620000000     0.648190000000     0.0453556  
H61      H      0.146210000000     0.468150000000     0.704000000000     0.0383874  
H62      H      0.089120000000     0.469060000000     0.702210000000     0.0422016  
H63      H      0.086980000000     0.028250000000     0.783530000000     0.0462251  
H64      H      0.336860000000     0.455350000000     0.707200000000     0.0376305  
H65      H      0.394500000000     0.455850000000     0.704470000000     0.037537   
H66      H      0.397460000000     0.025100000000     0.777240000000     0.0430712  
H67      H      0.468720000000     0.339160000000     0.784370000000     0.0354465  
H68      H      0.469570000000     0.396570000000     0.786370000000     0.0390562  
H69      H      0.028500000000     0.398670000000     0.704940000000     0.0441295  
H70      H      0.448710000000     0.089520000000     0.769230000000     0.0372628  
H71      H      0.448290000000     0.147070000000     0.769530000000     0.0404404  
H72      H      0.029050000000     0.148020000000     0.709620000000     0.0448389  
H73      H      0.340150000000     0.774160000000     0.026910000000     0.0363117  
H74      H      0.397310000000     0.776050000000     0.025580000000     0.0373559  
H75      H      0.398870000000     0.701130000000     0.458530000000     0.043824   
H76      H      0.148560000000     0.706270000000     0.466180000000     0.0408855  
H77      H      0.091690000000     0.703430000000     0.469160000000     0.050914   
H78      H      0.089380000000     0.790160000000     0.020190000000     0.0475618  
H79      H      0.281480000000     0.898750000000     0.523890000000     0.0395131  
H80      H      0.281900000000     0.841370000000     0.525610000000     0.0378517  
H81      H      0.214240000000     0.838150000000     0.451420000000     0.0452897  
H82      H      0.267480000000     0.589650000000     0.954620000000     0.0464215  
H83      H      0.267540000000     0.646510000000     0.953660000000     0.0502622  
H84      H      0.210890000000     0.648710000000     0.036760000000     0.0455674  
H85      H      0.205740000000     0.961860000000     0.395980000000     0.0470194  
H86      H      0.207900000000     0.959040000000     0.338730000000     0.0408924  
H87      H      0.277370000000     0.531620000000     0.337670000000     0.0516995  
H88      H      0.269190000000     0.034040000000     0.087160000000     0.0404095  
H89      H      0.267500000000     0.037200000000     0.144400000000     0.0413271  
H90      H      0.211720000000     0.953450000000     0.147480000000     0.0447329  
H91      H      0.461590000000     0.779680000000     0.397210000000     0.0379058  
H92      H      0.459410000000     0.777740000000     0.339960000000     0.0377128  
H93      H      0.536620000000     0.713320000000     0.338670000000     0.0448429  
H94      H      0.952860000000     0.771840000000     0.088660000000     0.0360499  
H95      H      0.951280000000     0.771710000000     0.146050000000     0.0391875  
H96      H      0.031200000000     0.710620000000     0.148190000000     0.0453724  
H97      H      0.146210000000     0.968150000000     0.204010000000     0.0383271  
H98      H      0.089120000000     0.969060000000     0.202210000000     0.0420803  
H99      H      0.086980000000     0.528250000000     0.283530000000     0.0459349  
H100     H      0.336860000000     0.955350000000     0.207200000000     0.0376078  
H101     H      0.394500000000     0.955850000000     0.204470000000     0.0374524  
H102     H      0.397460000000     0.525100000000     0.277240000000     0.042854   
H103     H      0.468720000000     0.839160000000     0.284370000000     0.0354294  
H104     H      0.469570000000     0.896570000000     0.286370000000     0.0389298  
H105     H      0.028500000000     0.898670000000     0.204940000000     0.0441177  
H106     H      0.448710000000     0.589520000000     0.269240000000     0.0368844  
H107     H      0.448290000000     0.647070000000     0.269530000000     0.0403498  
H108     H      0.029050000000     0.648020000000     0.209620000000     0.0448091  
H109     H      0.340150000000     0.774160000000     0.526910000000     0.0362352  
H110     H      0.397310000000     0.776050000000     0.525580000000     0.0370065  
H111     H      0.398870000000     0.701130000000     0.958530000000     0.0436577  
H112     H      0.148560000000     0.706270000000     0.966180000000     0.0406486  
H113     H      0.091690000000     0.703430000000     0.969160000000     0.0506074  
H114     H      0.089380000000     0.790160000000     0.520190000000     0.0471686  
H115     H      0.281480000000     0.898750000000     0.023890000000     0.0398609  
H116     H      0.281900000000     0.841370000000     0.025610000000     0.0379235  
H117     H      0.214240000000     0.838150000000     0.951420000000     0.0451493  
H118     H      0.267480000000     0.589650000000     0.454620000000     0.0465008  
H119     H      0.267540000000     0.646510000000     0.453660000000     0.0502212  
H120     H      0.210890000000     0.648710000000     0.536760000000     0.0455728  
H121     H      0.205740000000     0.961860000000     0.895980000000     0.0469293  
H122     H      0.207900000000     0.959040000000     0.838730000000     0.0408424  
H123     H      0.277370000000     0.531620000000     0.837670000000     0.0516733  
H124     H      0.269190000000     0.034040000000     0.587160000000     0.0398551  
H125     H      0.267500000000     0.037200000000     0.644400000000     0.0411772  
H126     H      0.211720000000     0.953450000000     0.647480000000     0.0446706  
H127     H      0.461590000000     0.779680000000     0.897210000000     0.0377109  
H128     H      0.459410000000     0.777740000000     0.839960000000     0.0376457  
H129     H      0.536620000000     0.713320000000     0.838670000000     0.0448159  
H130     H      0.952860000000     0.771840000000     0.588660000000     0.0355706  
H131     H      0.951280000000     0.771710000000     0.646050000000     0.0390523  
H132     H      0.031200000000     0.710620000000     0.648190000000     0.045287   
H133     H      0.146210000000     0.968150000000     0.704000000000     0.0382549  
H134     H      0.089120000000     0.969060000000     0.702210000000     0.0419328  
H135     H      0.086980000000     0.528250000000     0.783530000000     0.0458693  
H136     H      0.336860000000     0.955350000000     0.707200000000     0.0375063  
H137     H      0.394500000000     0.955850000000     0.704470000000     0.0373056  
H138     H      0.397460000000     0.525100000000     0.777240000000     0.0427969  
H139     H      0.468720000000     0.839160000000     0.784370000000     0.0353712  
H140     H      0.469570000000     0.896570000000     0.786370000000     0.0388382  
H141     H      0.028500000000     0.898670000000     0.704940000000     0.0440086  
H142     H      0.448710000000     0.589520000000     0.769230000000     0.036816   
H143     H      0.448290000000     0.647070000000     0.769530000000     0.0403204  
H144     H      0.029050000000     0.648020000000     0.709620000000     0.044745   
H145     H      0.840150000000     0.274160000000     0.026910000000     0.036301   
H146     H      0.897310000000     0.276050000000     0.025580000000     0.0372981  
H147     H      0.898870000000     0.201130000000     0.458530000000     0.0437705  
H148     H      0.648560000000     0.206270000000     0.466180000000     0.0408755  
H149     H      0.591690000000     0.203430000000     0.469160000000     0.0506676  
H150     H      0.589380000000     0.290160000000     0.020190000000     0.0470934  
H151     H      0.781480000000     0.398750000000     0.523890000000     0.0395953  
H152     H      0.781900000000     0.341370000000     0.525610000000     0.0378695  
H153     H      0.714240000000     0.338150000000     0.451420000000     0.0452477  
H154     H      0.767480000000     0.089650000000     0.954620000000     0.0467461  
H155     H      0.767540000000     0.146510000000     0.953660000000     0.0503186  
H156     H      0.710890000000     0.148710000000     0.036760000000     0.0456053  
H157     H      0.705740000000     0.461860000000     0.395980000000     0.0470954  
H158     H      0.707900000000     0.459040000000     0.338730000000     0.0409625  
H159     H      0.777370000000     0.031620000000     0.337670000000     0.0515053  
H160     H      0.769200000000     0.534040000000     0.087160000000     0.0400754  
H161     H      0.767500000000     0.537200000000     0.144400000000     0.0412198  
H162     H      0.711720000000     0.453450000000     0.147480000000     0.0446441  
H163     H      0.961590000000     0.279680000000     0.397210000000     0.0378257  
H164     H      0.959410000000     0.277740000000     0.339960000000     0.0377347  
H165     H      0.036620000000     0.213320000000     0.338670000000     0.0448982  
H166     H      0.452860000000     0.271840000000     0.088660000000     0.0362881  
H167     H      0.451280000000     0.271710000000     0.146050000000     0.0393442  
H168     H      0.531200000000     0.210620000000     0.148190000000     0.0456075  
H169     H      0.646210000000     0.468150000000     0.204010000000     0.0383351  
H170     H      0.589120000000     0.469060000000     0.202210000000     0.0418691  
H171     H      0.586980000000     0.028250000000     0.283530000000     0.0457446  
H172     H      0.836860000000     0.455350000000     0.207200000000     0.0376665  
H173     H      0.894500000000     0.455850000000     0.204470000000     0.0374903  
H174     H      0.897450000000     0.025100000000     0.277240000000     0.0430062  
H175     H      0.968720000000     0.339160000000     0.284370000000     0.0353993  
H176     H      0.969570000000     0.396570000000     0.286370000000     0.0388848  
H177     H      0.528500000000     0.398670000000     0.204940000000     0.0439029  
H178     H      0.948710000000     0.089520000000     0.269240000000     0.0371892  
H179     H      0.948290000000     0.147070000000     0.269530000000     0.0403811  
H180     H      0.529050000000     0.148020000000     0.209620000000     0.0450365  
H181     H      0.840150000000     0.274160000000     0.526910000000     0.0362242  
H182     H      0.897310000000     0.276050000000     0.525580000000     0.0369486  
H183     H      0.898870000000     0.201130000000     0.958530000000     0.0436048  
H184     H      0.648560000000     0.206270000000     0.966180000000     0.0406388  
H185     H      0.591690000000     0.203430000000     0.969160000000     0.0503607  
H186     H      0.589380000000     0.290160000000     0.520190000000     0.0466966  
H187     H      0.781480000000     0.398750000000     0.023890000000     0.0399416  
H188     H      0.781900000000     0.341370000000     0.025610000000     0.0379411  
H189     H      0.714240000000     0.338150000000     0.951420000000     0.0451067  
H190     H      0.767480000000     0.089650000000     0.454620000000     0.0468251  
H191     H      0.767540000000     0.146510000000     0.453660000000     0.0502775  
H192     H      0.710890000000     0.148710000000     0.536760000000     0.0456103  
H193     H      0.705740000000     0.461860000000     0.895980000000     0.0470048  
H194     H      0.707900000000     0.459040000000     0.838730000000     0.0409123  
H195     H      0.777370000000     0.031620000000     0.837670000000     0.0514789  
H196     H      0.769200000000     0.534040000000     0.587160000000     0.0395162  
H197     H      0.767500000000     0.537200000000     0.644400000000     0.0410681  
H198     H      0.711720000000     0.453450000000     0.647480000000     0.0445808  
H199     H      0.961590000000     0.279680000000     0.897210000000     0.037631   
H200     H      0.959410000000     0.277740000000     0.839960000000     0.0376681  
H201     H      0.036620000000     0.213320000000     0.838670000000     0.0448719  
H202     H      0.452860000000     0.271840000000     0.588660000000     0.0358106  
H203     H      0.451280000000     0.271710000000     0.646050000000     0.0392097  
H204     H      0.531200000000     0.210620000000     0.648190000000     0.0455227  
H205     H      0.646210000000     0.468150000000     0.704000000000     0.0382628  
H206     H      0.589120000000     0.469060000000     0.702210000000     0.0417204  
H207     H      0.586980000000     0.028250000000     0.783530000000     0.0456783  
H208     H      0.836860000000     0.455350000000     0.707200000000     0.0375651  
H209     H      0.894500000000     0.455850000000     0.704470000000     0.0373434  
H210     H      0.897450000000     0.025100000000     0.777240000000     0.0429494  
H211     H      0.968720000000     0.339160000000     0.784370000000     0.0353415  
H212     H      0.969570000000     0.396570000000     0.786370000000     0.0387935  
H213     H      0.528500000000     0.398670000000     0.704940000000     0.0437919  
H214     H      0.948710000000     0.089520000000     0.769230000000     0.037122   
H215     H      0.948290000000     0.147070000000     0.769530000000     0.0403523  
H216     H      0.529050000000     0.148020000000     0.709620000000     0.0449728  
H217     H      0.840150000000     0.774160000000     0.026910000000     0.036256   
H218     H      0.897310000000     0.776050000000     0.025580000000     0.0372271  
H219     H      0.898870000000     0.701130000000     0.458530000000     0.0436329  
H220     H      0.648560000000     0.706270000000     0.466180000000     0.0407777  
H221     H      0.591690000000     0.703430000000     0.469160000000     0.0505407  
H222     H      0.589380000000     0.790160000000     0.020190000000     0.0470232  
H223     H      0.781480000000     0.898750000000     0.523890000000     0.0394406  
H224     H      0.781900000000     0.841370000000     0.525610000000     0.0378056  
H225     H      0.714240000000     0.838150000000     0.451420000000     0.0452106  
H226     H      0.767480000000     0.589650000000     0.954620000000     0.0463832  
H227     H      0.767540000000     0.646510000000     0.953660000000     0.0502362  
H228     H      0.710890000000     0.648710000000     0.036760000000     0.0455109  
H229     H      0.705740000000     0.961860000000     0.395980000000     0.0468969  
H230     H      0.707900000000     0.959040000000     0.338730000000     0.0407722  
H231     H      0.777370000000     0.531620000000     0.337670000000     0.0516759  
H232     H      0.769200000000     0.034040000000     0.087160000000     0.0403485  
H233     H      0.767500000000     0.037200000000     0.144400000000     0.0412822  
H234     H      0.711720000000     0.953450000000     0.147480000000     0.0446667  
H235     H      0.961590000000     0.779680000000     0.397210000000     0.0377445  
H236     H      0.959410000000     0.777740000000     0.339960000000     0.0376825  
H237     H      0.036620000000     0.713320000000     0.338670000000     0.0448191  
H238     H      0.452860000000     0.771840000000     0.088660000000     0.0362262  
H239     H      0.451280000000     0.771710000000     0.146050000000     0.0393001  
H240     H      0.531200000000     0.710620000000     0.148190000000     0.0455392  
H241     H      0.646210000000     0.968150000000     0.204010000000     0.038203   
H242     H      0.589120000000     0.969060000000     0.202210000000     0.0416002  
H243     H      0.586980000000     0.528250000000     0.283530000000     0.0453852  
H244     H      0.836860000000     0.955350000000     0.207200000000     0.0375428  
H245     H      0.894500000000     0.955850000000     0.204470000000     0.0372597  
H246     H      0.897450000000     0.525100000000     0.277240000000     0.0427327  
H247     H      0.968720000000     0.839160000000     0.284370000000     0.0353242  
H248     H      0.969570000000     0.896570000000     0.286370000000     0.0386672  
H249     H      0.528500000000     0.898670000000     0.204940000000     0.0437817  
H250     H      0.948710000000     0.589520000000     0.269240000000     0.0367431  
H251     H      0.948290000000     0.647070000000     0.269530000000     0.0402612  
H252     H      0.529050000000     0.648020000000     0.209620000000     0.0449434  
H253     H      0.840150000000     0.774160000000     0.526910000000     0.0361792  
H254     H      0.897310000000     0.776050000000     0.525580000000     0.036877   
H255     H      0.898870000000     0.701130000000     0.958530000000     0.0434668  
H256     H      0.648560000000     0.706270000000     0.966180000000     0.0405403  
H257     H      0.591690000000     0.703430000000     0.969160000000     0.050233   
H258     H      0.589380000000     0.790160000000     0.520190000000     0.0466259  
H259     H      0.781480000000     0.898750000000     0.023890000000     0.0397889  
H260     H      0.781900000000     0.841370000000     0.025610000000     0.0378774  
H261     H      0.714240000000     0.838150000000     0.951420000000     0.0450695  
H262     H      0.767480000000     0.589650000000     0.454620000000     0.0464624  
H263     H      0.767540000000     0.646510000000     0.453660000000     0.0501949  
H264     H      0.710890000000     0.648710000000     0.536760000000     0.0455156  
H265     H      0.705740000000     0.961860000000     0.895980000000     0.0468065  
H266     H      0.707900000000     0.959040000000     0.838730000000     0.0407219  
H267     H      0.777370000000     0.531620000000     0.837670000000     0.0516497  
H268     H      0.769200000000     0.034040000000     0.587160000000     0.0397929  
H269     H      0.767500000000     0.037200000000     0.644400000000     0.041132   
H270     H      0.711720000000     0.953450000000     0.647480000000     0.0446039  
H271     H      0.961590000000     0.779680000000     0.897210000000     0.0375498  
H272     H      0.959410000000     0.777740000000     0.839960000000     0.037616   
H273     H      0.036620000000     0.713320000000     0.838670000000     0.0447926  
H274     H      0.452860000000     0.771840000000     0.588660000000     0.0357476  
H275     H      0.451280000000     0.771710000000     0.646050000000     0.0391653  
H276     H      0.531200000000     0.710620000000     0.648190000000     0.0454539  
H277     H      0.646210000000     0.968150000000     0.704000000000     0.03813    
H278     H      0.589120000000     0.969060000000     0.702210000000     0.0414507  
H279     H      0.586980000000     0.528250000000     0.783530000000     0.0453185  
H280     H      0.836860000000     0.955350000000     0.707200000000     0.037441   
H281     H      0.894500000000     0.955850000000     0.704470000000     0.0371122  
H282     H      0.897450000000     0.525100000000     0.777240000000     0.0426757  
H283     H      0.968720000000     0.839160000000     0.784370000000     0.0352664  
H284     H      0.969570000000     0.896570000000     0.786370000000     0.0385759  
H285     H      0.528500000000     0.898670000000     0.704940000000     0.0436703  
H286     H      0.948710000000     0.589520000000     0.769230000000     0.0366749  
H287     H      0.948290000000     0.647070000000     0.769530000000     0.0402321  
H288     H      0.529050000000     0.648020000000     0.709620000000     0.0448791  
N1       N      0.401870000000     0.238730000000     0.991850000000    -0.182189   
N2       N      0.336360000000     0.238380000000     0.991460000000    -0.183241   
N3       N      0.322740000000     0.175810000000     0.431210000000    -0.0943875  
N4       N      0.086520000000     0.246720000000     0.994780000000    -0.179524   
N5       N      0.152050000000     0.248520000000     0.993610000000    -0.18331    
N6       N      0.165900000000     0.322620000000     0.038460000000    -0.0869687  
N7       N      0.248110000000     0.335980000000     0.488550000000    -0.179093   
N8       N      0.245610000000     0.401580000000     0.488420000000    -0.179976   
N9       N      0.182950000000     0.411900000000     0.427070000000    -0.0956325  
N10      N      0.239280000000     0.151580000000     0.495270000000    -0.178487   
N11      N      0.237270000000     0.086060000000     0.994840000000    -0.183609   
N12      N      0.187300000000     0.071880000000     0.065420000000    -0.0879531  
N13      N      0.242910000000     0.495110000000     0.334420000000    -0.178595   
N14      N      0.242590000000     0.496160000000     0.399910000000    -0.180433   
N15      N      0.305640000000     0.056240000000     0.413110000000    -0.0926054  
N16      N      0.239620000000     0.495440000000     0.149830000000    -0.179156   
N17      N      0.239760000000     0.993050000000     0.084390000000    -0.183424   
N18      N      0.191180000000     0.420880000000     0.072180000000    -0.0871412  
N19      N      0.997750000000     0.245140000000     0.335510000000    -0.181338   
N20      N      0.998590000000     0.245510000000     0.401030000000    -0.183572   
N21      N      0.563730000000     0.187440000000     0.413810000000    -0.0955629  
N22      N      0.991360000000     0.241430000000     0.150990000000    -0.180334   
N23      N      0.991600000000     0.239550000000     0.085500000000    -0.183576   
N24      N      0.059750000000     0.185640000000     0.072630000000    -0.0876523  
N25      N      0.084160000000     0.998680000000     0.242850000000    -0.180684   
N26      N      0.149640000000     0.999550000000     0.243390000000    -0.18336    
N27      N      0.163470000000     0.051670000000     0.312540000000    -0.0889306  
N28      N      0.399720000000     0.990380000000     0.240840000000    -0.182604   
N29      N      0.334180000000     0.991820000000     0.242070000000    -0.182934   
N30      N      0.323780000000     0.055690000000     0.302150000000    -0.0946208  
N31      N      0.498760000000     0.401470000000     0.245530000000    -0.179402   
N32      N      0.499800000000     0.335920000000     0.244710000000    -0.182042   
N33      N      0.052110000000     0.322690000000     0.175540000000    -0.0900323  
N34      N      0.488920000000     0.151410000000     0.239960000000    -0.179066   
N35      N      0.487770000000     0.085860000000     0.237450000000    -0.181294   
N36      N      0.056320000000     0.071960000000     0.184390000000    -0.0875604  
N37      N      0.401870000000     0.238730000000     0.491850000000    -0.179782   
N38      N      0.336360000000     0.238380000000     0.491460000000    -0.181589   
N39      N      0.322740000000     0.175810000000     0.931210000000    -0.094581   
N40      N      0.086520000000     0.246720000000     0.494780000000    -0.177066   
N41      N      0.152050000000     0.248520000000     0.493610000000    -0.181826   
N42      N      0.165900000000     0.322620000000     0.538460000000    -0.0878731  
N43      N      0.248110000000     0.335980000000     0.988550000000    -0.180706   
N44      N      0.245610000000     0.401580000000     0.988420000000    -0.182401   
N45      N      0.182950000000     0.411900000000     0.927080000000    -0.0959736  
N46      N      0.239280000000     0.151580000000     0.995270000000    -0.180118   
N47      N      0.237270000000     0.086060000000     0.494840000000    -0.181283   
N48      N      0.187300000000     0.071880000000     0.565420000000    -0.0886675  
N49      N      0.242910000000     0.495110000000     0.834420000000    -0.178607   
N50      N      0.242590000000     0.496160000000     0.899910000000    -0.180403   
N51      N      0.305640000000     0.056240000000     0.913110000000    -0.0928851  
N52      N      0.239620000000     0.495440000000     0.649840000000    -0.179238   
N53      N      0.239760000000     0.993050000000     0.584390000000    -0.183768   
N54      N      0.191180000000     0.420880000000     0.572180000000    -0.0879518  
N55      N      0.997750000000     0.245140000000     0.835500000000    -0.181431   
N56      N      0.998590000000     0.245510000000     0.901030000000    -0.183542   
N57      N      0.563730000000     0.187440000000     0.913810000000    -0.0957979  
N58      N      0.991360000000     0.241430000000     0.650990000000    -0.180354   
N59      N      0.991600000000     0.239550000000     0.585500000000    -0.183928   
N60      N      0.059750000000     0.185640000000     0.572630000000    -0.0886292  
N61      N      0.084160000000     0.998680000000     0.742850000000    -0.180733   
N62      N      0.149640000000     0.999550000000     0.743390000000    -0.183365   
N63      N      0.163470000000     0.051670000000     0.812540000000    -0.0890059  
N64      N      0.399720000000     0.990380000000     0.740840000000    -0.182636   
N65      N      0.334180000000     0.991820000000     0.742070000000    -0.18295    
N66      N      0.323780000000     0.055690000000     0.802150000000    -0.0946686  
N67      N      0.498760000000     0.401470000000     0.745530000000    -0.179419   
N68      N      0.499800000000     0.335920000000     0.744710000000    -0.182075   
N69      N      0.052110000000     0.322690000000     0.675540000000    -0.0901965  
N70      N      0.488920000000     0.151410000000     0.739960000000    -0.179073   
N71      N      0.487770000000     0.085860000000     0.737450000000    -0.181338   
N72      N      0.056320000000     0.071960000000     0.684390000000    -0.0877844  
N73      N      0.401870000000     0.738730000000     0.991850000000    -0.182221   
N74      N      0.336360000000     0.738380000000     0.991460000000    -0.183255   
N75      N      0.322740000000     0.675810000000     0.431210000000    -0.0945229  
N76      N      0.086520000000     0.746720000000     0.994780000000    -0.179546   
N77      N      0.152050000000     0.748520000000     0.993610000000    -0.183317   
N78      N      0.165900000000     0.822620000000     0.038460000000    -0.0870299  
N79      N      0.248110000000     0.835980000000     0.488550000000    -0.179102   
N80      N      0.245610000000     0.901580000000     0.488420000000    -0.179932   
N81      N      0.182950000000     0.911900000000     0.427070000000    -0.0959135  
N82      N      0.239280000000     0.651580000000     0.495270000000    -0.178507   
N83      N      0.237270000000     0.586060000000     0.994840000000    -0.183954   
N84      N      0.187300000000     0.571880000000     0.065420000000    -0.0889141  
N85      N      0.242910000000     0.995110000000     0.334420000000    -0.180327   
N86      N      0.242590000000     0.996160000000     0.399910000000    -0.182857   
N87      N      0.305640000000     0.556250000000     0.413110000000    -0.0934049  
N88      N      0.239620000000     0.995440000000     0.149830000000    -0.180792   
N89      N      0.239760000000     0.493050000000     0.084390000000    -0.180949   
N90      N      0.191180000000     0.920880000000     0.072180000000    -0.0873239  
N91      N      0.997750000000     0.745140000000     0.335510000000    -0.181352   
N92      N      0.998590000000     0.745510000000     0.401030000000    -0.1836     
N93      N      0.563730000000     0.687440000000     0.413810000000    -0.0957834  
N94      N      0.991360000000     0.741430000000     0.150990000000    -0.180349   
N95      N      0.991600000000     0.739550000000     0.085500000000    -0.183606   
N96      N      0.059750000000     0.685640000000     0.072630000000    -0.0878772  
N97      N      0.084160000000     0.498680000000     0.242850000000    -0.178148   
N98      N      0.149640000000     0.499550000000     0.243390000000    -0.181771   
N99      N      0.163470000000     0.551670000000     0.312540000000    -0.0897613  
N100     N      0.399720000000     0.490380000000     0.240840000000    -0.18007    
N101     N      0.334180000000     0.491820000000     0.242070000000    -0.18135    
N102     N      0.323780000000     0.555690000000     0.302150000000    -0.0950291  
N103     N      0.498760000000     0.901470000000     0.245530000000    -0.179376   
N104     N      0.499800000000     0.835920000000     0.244710000000    -0.18205    
N105     N      0.052110000000     0.822690000000     0.175540000000    -0.0901042  
N106     N      0.488920000000     0.651410000000     0.239960000000    -0.179087   
N107     N      0.487770000000     0.585850000000     0.237450000000    -0.181712   
N108     N      0.056320000000     0.571960000000     0.184390000000    -0.08864    
N109     N      0.401870000000     0.738730000000     0.491850000000    -0.17981    
N110     N      0.336360000000     0.738380000000     0.491460000000    -0.1816     
N111     N      0.322740000000     0.675810000000     0.931210000000    -0.0947169  
N112     N      0.086520000000     0.746720000000     0.494780000000    -0.177083   
N113     N      0.152050000000     0.748520000000     0.493610000000    -0.181831   
N114     N      0.165900000000     0.822620000000     0.538460000000    -0.0879357  
N115     N      0.248110000000     0.835980000000     0.988550000000    -0.180716   
N116     N      0.245610000000     0.901580000000     0.988420000000    -0.182357   
N117     N      0.182950000000     0.911900000000     0.927080000000    -0.0962542  
N118     N      0.239280000000     0.651580000000     0.995270000000    -0.180144   
N119     N      0.237270000000     0.586060000000     0.494840000000    -0.181618   
N120     N      0.187300000000     0.571880000000     0.565420000000    -0.089636   
N121     N      0.242910000000     0.995110000000     0.834420000000    -0.18034    
N122     N      0.242590000000     0.996160000000     0.899910000000    -0.182829   
N123     N      0.305640000000     0.556250000000     0.913110000000    -0.0936851  
N124     N      0.239620000000     0.995440000000     0.649840000000    -0.180878   
N125     N      0.239760000000     0.493050000000     0.584390000000    -0.181282   
N126     N      0.191180000000     0.920880000000     0.572180000000    -0.0881354  
N127     N      0.997750000000     0.745140000000     0.835500000000    -0.181445   
N128     N      0.998590000000     0.745510000000     0.901030000000    -0.18357    
N129     N      0.563730000000     0.687440000000     0.913810000000    -0.0960191  
N130     N      0.991360000000     0.741430000000     0.650990000000    -0.180368   
N131     N      0.991600000000     0.739550000000     0.585500000000    -0.183959   
N132     N      0.059750000000     0.685640000000     0.572630000000    -0.0888581  
N133     N      0.084160000000     0.498680000000     0.742850000000    -0.178193   
N134     N      0.149640000000     0.499550000000     0.743390000000    -0.181773   
N135     N      0.163470000000     0.551670000000     0.812540000000    -0.0898379  
N136     N      0.399720000000     0.490380000000     0.740840000000    -0.180097   
N137     N      0.334180000000     0.491820000000     0.742070000000    -0.181363   
N138     N      0.323780000000     0.555690000000     0.802150000000    -0.0950777  
N139     N      0.498760000000     0.901470000000     0.745530000000    -0.179393   
N140     N      0.499800000000     0.835920000000     0.744710000000    -0.182083   
N141     N      0.052110000000     0.822690000000     0.675540000000    -0.0902687  
N142     N      0.488920000000     0.651410000000     0.739960000000    -0.179094   
N143     N      0.487770000000     0.585850000000     0.737450000000    -0.181756   
N144     N      0.056320000000     0.571960000000     0.684390000000    -0.0888684  
N145     N      0.901870000000     0.238730000000     0.991850000000    -0.182162   
N146     N      0.836360000000     0.238380000000     0.991460000000    -0.183238   
N147     N      0.822740000000     0.175810000000     0.431210000000    -0.0944697  
N148     N      0.586520000000     0.246720000000     0.994780000000    -0.179867   
N149     N      0.652050000000     0.248520000000     0.993610000000    -0.183331   
N150     N      0.665900000000     0.322620000000     0.038460000000    -0.0871336  
N151     N      0.748110000000     0.335980000000     0.488550000000    -0.179093   
N152     N      0.745610000000     0.401580000000     0.488420000000    -0.180015   
N153     N      0.682950000000     0.411900000000     0.427070000000    -0.0959125  
N154     N      0.739280000000     0.151580000000     0.495270000000    -0.178496   
N155     N      0.737270000000     0.086060000000     0.994840000000    -0.183639   
N156     N      0.687300000000     0.071880000000     0.065420000000    -0.0881274  
N157     N      0.742910000000     0.495110000000     0.334420000000    -0.178604   
N158     N      0.742590000000     0.496160000000     0.399910000000    -0.180451   
N159     N      0.805630000000     0.056240000000     0.413110000000    -0.0927501  
N160     N      0.739620000000     0.495440000000     0.149830000000    -0.179164   
N161     N      0.739760000000     0.993050000000     0.084390000000    -0.183452   
N162     N      0.691180000000     0.420880000000     0.072180000000    -0.0873266  
N163     N      0.497750000000     0.245140000000     0.335510000000    -0.179653   
N164     N      0.498590000000     0.245510000000     0.401030000000    -0.181184   
N165     N      0.063730000000     0.187440000000     0.413810000000    -0.0947996  
N166     N      0.491350000000     0.241430000000     0.150990000000    -0.17866    
N167     N      0.491600000000     0.239550000000     0.085500000000    -0.181173   
N168     N      0.559750000000     0.185640000000     0.072630000000    -0.0883836  
N169     N      0.584160000000     0.998680000000     0.242850000000    -0.181037   
N170     N      0.649640000000     0.999550000000     0.243390000000    -0.183381   
N171     N      0.663470000000     0.051670000000     0.312540000000    -0.0891102  
N172     N      0.899720000000     0.990380000000     0.240840000000    -0.182573   
N173     N      0.834180000000     0.991820000000     0.242070000000    -0.182944   
N174     N      0.823780000000     0.055690000000     0.302150000000    -0.0946865  
N175     N      0.998760000000     0.401470000000     0.245530000000    -0.181907   
N176     N      0.999800000000     0.335920000000     0.244710000000    -0.183618   
N177     N      0.552110000000     0.322690000000     0.175540000000    -0.0907959  
N178     N      0.988920000000     0.151410000000     0.239960000000    -0.180725   
N179     N      0.987770000000     0.085860000000     0.237450000000    -0.183692   
N180     N      0.556320000000     0.071960000000     0.184390000000    -0.0882964  
N181     N      0.901870000000     0.238730000000     0.491850000000    -0.179755   
N182     N      0.836360000000     0.238380000000     0.491460000000    -0.181585   
N183     N      0.822740000000     0.175810000000     0.931210000000    -0.0946632  
N184     N      0.586520000000     0.246720000000     0.494780000000    -0.177398   
N185     N      0.652050000000     0.248520000000     0.493610000000    -0.181841   
N186     N      0.665900000000     0.322620000000     0.538460000000    -0.0880417  
N187     N      0.748110000000     0.335980000000     0.988550000000    -0.180709   
N188     N      0.745610000000     0.401580000000     0.988420000000    -0.182445   
N189     N      0.682950000000     0.411900000000     0.927080000000    -0.0962546  
N190     N      0.739280000000     0.151580000000     0.995270000000    -0.180131   
N191     N      0.737270000000     0.086060000000     0.494840000000    -0.181307   
N192     N      0.687300000000     0.071880000000     0.565420000000    -0.0888449  
N193     N      0.742910000000     0.495110000000     0.834420000000    -0.178616   
N194     N      0.742590000000     0.496160000000     0.899910000000    -0.180422   
N195     N      0.805630000000     0.056240000000     0.913110000000    -0.0930294  
N196     N      0.739620000000     0.495440000000     0.649840000000    -0.179246   
N197     N      0.739760000000     0.993050000000     0.584390000000    -0.183797   
N198     N      0.691180000000     0.420880000000     0.572180000000    -0.0881406  
N199     N      0.497750000000     0.245140000000     0.835500000000    -0.179747   
N200     N      0.498590000000     0.245510000000     0.901030000000    -0.181154   
N201     N      0.063730000000     0.187440000000     0.913810000000    -0.095033   
N202     N      0.491350000000     0.241430000000     0.650990000000    -0.178672   
N203     N      0.491600000000     0.239550000000     0.585500000000    -0.181515   
N204     N      0.559750000000     0.185640000000     0.572630000000    -0.0893683  
N205     N      0.584160000000     0.998680000000     0.742850000000    -0.181087   
N206     N      0.649640000000     0.999550000000     0.743390000000    -0.183387   
N207     N      0.663470000000     0.051670000000     0.812540000000    -0.089186   
N208     N      0.899720000000     0.990380000000     0.740840000000    -0.182605   
N209     N      0.834180000000     0.991820000000     0.742070000000    -0.18296    
N210     N      0.823780000000     0.055690000000     0.802150000000    -0.0947343  
N211     N      0.998760000000     0.401470000000     0.745530000000    -0.18193    
N212     N      0.999800000000     0.335920000000     0.744710000000    -0.183656   
N213     N      0.552110000000     0.322690000000     0.675540000000    -0.0909637  
N214     N      0.988920000000     0.151410000000     0.739960000000    -0.180736   
N215     N      0.987770000000     0.085860000000     0.737450000000    -0.183741   
N216     N      0.556320000000     0.071960000000     0.684390000000    -0.0885236  
N217     N      0.901870000000     0.738730000000     0.991850000000    -0.182195   
N218     N      0.836360000000     0.738380000000     0.991460000000    -0.183253   
N219     N      0.822740000000     0.675810000000     0.431210000000    -0.0946054  
N220     N      0.586520000000     0.746720000000     0.994780000000    -0.17989    
N221     N      0.652050000000     0.748520000000     0.993610000000    -0.183339   
N222     N      0.665900000000     0.822620000000     0.038460000000    -0.0871952  
N223     N      0.748110000000     0.835980000000     0.488550000000    -0.179102   
N224     N      0.745610000000     0.901580000000     0.488420000000    -0.179971   
N225     N      0.682950000000     0.911900000000     0.427070000000    -0.0961943  
N226     N      0.739280000000     0.651580000000     0.495270000000    -0.178517   
N227     N      0.737270000000     0.586060000000     0.994840000000    -0.183984   
N228     N      0.687300000000     0.571880000000     0.065420000000    -0.0890924  
N229     N      0.742910000000     0.995110000000     0.334420000000    -0.18034    
N230     N      0.742590000000     0.996160000000     0.399910000000    -0.182881   
N231     N      0.805630000000     0.556250000000     0.413110000000    -0.0935512  
N232     N      0.739620000000     0.995440000000     0.149830000000    -0.180803   
N233     N      0.739760000000     0.493050000000     0.084390000000    -0.180972   
N234     N      0.691180000000     0.920880000000     0.072180000000    -0.0875099  
N235     N      0.497750000000     0.745140000000     0.335510000000    -0.179664   
N236     N      0.498590000000     0.745510000000     0.401030000000    -0.181207   
N237     N      0.063730000000     0.687440000000     0.413810000000    -0.0950167  
N238     N      0.491350000000     0.741430000000     0.150990000000    -0.17867    
N239     N      0.491600000000     0.739550000000     0.085500000000    -0.181198   
N240     N      0.559750000000     0.685640000000     0.072630000000    -0.0886117  
N241     N      0.584160000000     0.498680000000     0.242850000000    -0.178491   
N242     N      0.649640000000     0.499550000000     0.243390000000    -0.181786   
N243     N      0.663470000000     0.551670000000     0.312540000000    -0.0899443  
N244     N      0.899720000000     0.490380000000     0.240840000000    -0.180038   
N245     N      0.834180000000     0.491820000000     0.242070000000    -0.181359   
N246     N      0.823780000000     0.555690000000     0.302150000000    -0.0950956  
N247     N      0.998760000000     0.901470000000     0.245530000000    -0.181882   
N248     N      0.999800000000     0.835920000000     0.244710000000    -0.183627   
N249     N      0.552110000000     0.822690000000     0.175540000000    -0.090869   
N250     N      0.988920000000     0.651410000000     0.239960000000    -0.180752   
N251     N      0.987770000000     0.585850000000     0.237450000000    -0.18412    
N252     N      0.556320000000     0.571960000000     0.184390000000    -0.0893842  
N253     N      0.901870000000     0.738730000000     0.491850000000    -0.179783   
N254     N      0.836360000000     0.738380000000     0.491460000000    -0.181596   
N255     N      0.822740000000     0.675810000000     0.931210000000    -0.0947994  
N256     N      0.586520000000     0.746720000000     0.494780000000    -0.177416   
N257     N      0.652050000000     0.748520000000     0.493610000000    -0.181846   
N258     N      0.665900000000     0.822620000000     0.538460000000    -0.0881047  
N259     N      0.748110000000     0.835980000000     0.988550000000    -0.180719   
N260     N      0.745610000000     0.901580000000     0.988420000000    -0.182401   
N261     N      0.682950000000     0.911900000000     0.927080000000    -0.0965362  
N262     N      0.739280000000     0.651580000000     0.995270000000    -0.180158   
N263     N      0.737270000000     0.586060000000     0.494840000000    -0.181643   
N264     N      0.687300000000     0.571880000000     0.565420000000    -0.0898174  
N265     N      0.742910000000     0.995110000000     0.834420000000    -0.180353   
N266     N      0.742590000000     0.996160000000     0.899910000000    -0.182852   
N267     N      0.805630000000     0.556250000000     0.913110000000    -0.093831   
N268     N      0.739620000000     0.995440000000     0.649840000000    -0.18089    
N269     N      0.739760000000     0.493050000000     0.584390000000    -0.181307   
N270     N      0.691180000000     0.920880000000     0.572180000000    -0.0883248  
N271     N      0.497750000000     0.745140000000     0.835500000000    -0.179758   
N272     N      0.498590000000     0.745510000000     0.901030000000    -0.181176   
N273     N      0.063730000000     0.687440000000     0.913810000000    -0.0952508  
N274     N      0.491350000000     0.741430000000     0.650990000000    -0.178683   
N275     N      0.491600000000     0.739550000000     0.585500000000    -0.18154    
N276     N      0.559750000000     0.685640000000     0.572630000000    -0.0896006  
N277     N      0.584160000000     0.498680000000     0.742850000000    -0.178536   
N278     N      0.649640000000     0.499550000000     0.743390000000    -0.181789   
N279     N      0.663470000000     0.551670000000     0.812540000000    -0.0900214  
N280     N      0.899720000000     0.490380000000     0.740840000000    -0.180065   
N281     N      0.834180000000     0.491820000000     0.742070000000    -0.181372   
N282     N      0.823780000000     0.555690000000     0.802150000000    -0.0951441  
N283     N      0.998760000000     0.901470000000     0.745530000000    -0.181905   
N284     N      0.999800000000     0.835920000000     0.744710000000    -0.183664   
N285     N      0.552110000000     0.822690000000     0.675540000000    -0.0910371  
N286     N      0.988920000000     0.651410000000     0.739960000000    -0.180763   
N287     N      0.987770000000     0.585850000000     0.737450000000    -0.18417    
N288     N      0.556320000000     0.571960000000     0.684390000000    -0.0896158  
Ni1      Ni     0.492700000000     0.991960000000     0.213560000000     1.00891    
Ni2      Ni     0.491130000000     0.495300000000     0.269690000000     1.0112     
Ni3      Ni     0.466270000000     0.245750000000     0.244620000000     1.00161    
Ni4      Ni     0.022330000000     0.241650000000     0.241920000000     1.02376    
Ni5      Ni     0.240200000000     0.467390000000     0.241700000000     1.00965    
Ni6      Ni     0.243420000000     0.023610000000     0.242600000000     1.02173    
Ni7      Ni     0.213130000000     0.992260000000     0.991800000000     1.00682    
Ni8      Ni     0.269180000000     0.495580000000     0.992630000000     1.00976    
Ni9      Ni     0.995740000000     0.214550000000     0.991990000000     1.01067    
Ni10     Ni     0.992470000000     0.270710000000     0.494570000000     1.00103    
Ni11     Ni     0.243750000000     0.242340000000     0.464330000000     1.021      
Ni12     Ni     0.244600000000     0.245310000000     0.020360000000     1.00599    
Ni13     Ni     0.492700000000     0.991960000000     0.713560000000     1.0086     
Ni14     Ni     0.491130000000     0.495300000000     0.769690000000     1.01113    
Ni15     Ni     0.466270000000     0.245750000000     0.744620000000     1.00158    
Ni16     Ni     0.022330000000     0.241650000000     0.741920000000     1.02379    
Ni17     Ni     0.240200000000     0.467390000000     0.741700000000     1.00961    
Ni18     Ni     0.243420000000     0.023610000000     0.742600000000     1.02192    
Ni19     Ni     0.213130000000     0.992260000000     0.491810000000     1.01151    
Ni20     Ni     0.269180000000     0.495580000000     0.492630000000     1.01443    
Ni21     Ni     0.995740000000     0.214550000000     0.491990000000     1.01506    
Ni22     Ni     0.992470000000     0.270710000000     0.994570000000     0.996365   
Ni23     Ni     0.243750000000     0.242340000000     0.964330000000     1.01523    
Ni24     Ni     0.244600000000     0.245310000000     0.520360000000     1.0031     
Ni25     Ni     0.492700000000     0.491960000000     0.213560000000     1.01363    
Ni26     Ni     0.491130000000     0.995300000000     0.269690000000     1.00619    
Ni27     Ni     0.466270000000     0.745750000000     0.244620000000     1.00159    
Ni28     Ni     0.022330000000     0.741650000000     0.241920000000     1.02376    
Ni29     Ni     0.240200000000     0.967390000000     0.241700000000     1.00369    
Ni30     Ni     0.243420000000     0.523610000000     0.242600000000     1.0189     
Ni31     Ni     0.213130000000     0.492260000000     0.991800000000     1.0115     
Ni32     Ni     0.269180000000     0.995580000000     0.992630000000     1.00471    
Ni33     Ni     0.995740000000     0.714550000000     0.991990000000     1.01035    
Ni34     Ni     0.992470000000     0.770710000000     0.494570000000     1.00095    
Ni35     Ni     0.243750000000     0.742340000000     0.464330000000     1.021      
Ni36     Ni     0.244600000000     0.745310000000     0.020360000000     1.00599    
Ni37     Ni     0.492700000000     0.491960000000     0.713560000000     1.01333    
Ni38     Ni     0.491130000000     0.995300000000     0.769690000000     1.00611    
Ni39     Ni     0.466270000000     0.745750000000     0.744620000000     1.00156    
Ni40     Ni     0.022330000000     0.741650000000     0.741920000000     1.02379    
Ni41     Ni     0.240200000000     0.967390000000     0.741700000000     1.00364    
Ni42     Ni     0.243420000000     0.523610000000     0.742600000000     1.0191     
Ni43     Ni     0.213130000000     0.492260000000     0.491810000000     1.0162     
Ni44     Ni     0.269180000000     0.995580000000     0.492630000000     1.00937    
Ni45     Ni     0.995740000000     0.714550000000     0.491990000000     1.01475    
Ni46     Ni     0.992470000000     0.770710000000     0.994570000000     0.996278   
Ni47     Ni     0.243750000000     0.742340000000     0.964330000000     1.01522    
Ni48     Ni     0.244600000000     0.745310000000     0.520360000000     1.00309    
Ni49     Ni     0.992700000000     0.991960000000     0.213560000000     1.00396    
Ni50     Ni     0.991130000000     0.495300000000     0.269690000000     1.00653    
Ni51     Ni     0.966270000000     0.245750000000     0.244620000000     0.995717   
Ni52     Ni     0.522330000000     0.241650000000     0.241920000000     1.02095    
Ni53     Ni     0.740200000000     0.467390000000     0.241700000000     1.00962    
Ni54     Ni     0.743420000000     0.023610000000     0.242600000000     1.02174    
Ni55     Ni     0.713130000000     0.992260000000     0.991800000000     1.0065     
Ni56     Ni     0.769180000000     0.495580000000     0.992630000000     1.00968    
Ni57     Ni     0.495740000000     0.214550000000     0.991990000000     1.01571    
Ni58     Ni     0.492470000000     0.270710000000     0.494570000000     1.00566    
Ni59     Ni     0.743750000000     0.242340000000     0.464330000000     1.02098    
Ni60     Ni     0.744600000000     0.245310000000     0.020360000000     1.00601    
Ni61     Ni     0.992700000000     0.991960000000     0.713560000000     1.00363    
Ni62     Ni     0.991130000000     0.495300000000     0.769690000000     1.00646    
Ni63     Ni     0.966270000000     0.245750000000     0.744620000000     0.995679   
Ni64     Ni     0.522330000000     0.241650000000     0.741920000000     1.02097    
Ni65     Ni     0.740200000000     0.467390000000     0.741700000000     1.00958    
Ni66     Ni     0.743420000000     0.023610000000     0.742600000000     1.02194    
Ni67     Ni     0.713130000000     0.992260000000     0.491810000000     1.0112     
Ni68     Ni     0.769180000000     0.495580000000     0.492630000000     1.01436    
Ni69     Ni     0.495740000000     0.214550000000     0.491990000000     1.0201     
Ni70     Ni     0.492470000000     0.270710000000     0.994570000000     1.00099    
Ni71     Ni     0.743750000000     0.242340000000     0.964330000000     1.01519    
Ni72     Ni     0.744600000000     0.245310000000     0.520360000000     1.00311    
Ni73     Ni     0.992700000000     0.491960000000     0.213560000000     1.00866    
Ni74     Ni     0.991130000000     0.995300000000     0.269690000000     1.00153    
Ni75     Ni     0.966270000000     0.745750000000     0.244620000000     0.995682   
Ni76     Ni     0.522330000000     0.741650000000     0.241920000000     1.02094    
Ni77     Ni     0.740200000000     0.967390000000     0.241700000000     1.00364    
Ni78     Ni     0.743420000000     0.523610000000     0.242600000000     1.01891    
Ni79     Ni     0.713130000000     0.492260000000     0.991800000000     1.01119    
Ni80     Ni     0.769180000000     0.995580000000     0.992630000000     1.00463    
Ni81     Ni     0.495740000000     0.714550000000     0.991990000000     1.0154     
Ni82     Ni     0.492470000000     0.770710000000     0.494570000000     1.00558    
Ni83     Ni     0.743750000000     0.742340000000     0.464330000000     1.02097    
Ni84     Ni     0.744600000000     0.745310000000     0.020360000000     1.00601    
Ni85     Ni     0.992700000000     0.491960000000     0.713560000000     1.00835    
Ni86     Ni     0.991130000000     0.995300000000     0.769690000000     1.00146    
Ni87     Ni     0.966270000000     0.745750000000     0.744620000000     0.995644   
Ni88     Ni     0.522330000000     0.741650000000     0.741920000000     1.02096    
Ni89     Ni     0.740200000000     0.967390000000     0.741700000000     1.00359    
Ni90     Ni     0.743420000000     0.523610000000     0.742600000000     1.01911    
Ni91     Ni     0.713130000000     0.492260000000     0.491810000000     1.01591    
Ni92     Ni     0.769180000000     0.995580000000     0.492630000000     1.0093     
Ni93     Ni     0.495740000000     0.714550000000     0.491990000000     1.01981    
Ni94     Ni     0.492470000000     0.770710000000     0.994570000000     1.0009     
Ni95     Ni     0.743750000000     0.742340000000     0.964330000000     1.01518    
Ni96     Ni     0.744600000000     0.745310000000     0.520360000000     1.0031     
O1       O      0.990190000000     0.037360000000     0.213310000000    -0.435557   
O2       O      0.496380000000     0.447330000000     0.217470000000    -0.44832    
O3       O      0.447260000000     0.988420000000     0.214840000000    -0.441806   
O4       O      0.037550000000     0.494600000000     0.216110000000    -0.439454   
O5       O      0.036420000000     0.998730000000     0.268470000000    -0.440144   
O6       O      0.446420000000     0.492920000000     0.267190000000    -0.449775   
O7       O      0.993670000000     0.449770000000     0.269870000000    -0.442617   
O8       O      0.487700000000     0.040080000000     0.265740000000    -0.44139    
O9       O      0.466620000000     0.246130000000     0.199070000000    -0.440917   
O10      O      0.469750000000     0.246240000000     0.289490000000    -0.445823   
O11      O      0.470880000000     0.290540000000     0.245360000000    -0.44638    
O12      O      0.465390000000     0.200140000000     0.244760000000    -0.440596   
O13      O      0.017720000000     0.196920000000     0.241070000000    -0.443771   
O14      O      0.023240000000     0.287120000000     0.241730000000    -0.434926   
O15      O      0.022030000000     0.241160000000     0.287300000000    -0.439877   
O16      O      0.018930000000     0.241280000000     0.197180000000    -0.441229   
O17      O      0.285780000000     0.467230000000     0.240850000000    -0.441528   
O18      O      0.195390000000     0.471370000000     0.241520000000    -0.446767   
O19      O      0.239370000000     0.469390000000     0.196910000000    -0.449212   
O20      O      0.239950000000     0.469080000000     0.287080000000    -0.443011   
O21      O      0.245090000000     0.021450000000     0.287530000000    -0.435847   
O22      O      0.242600000000     0.021890000000     0.197140000000    -0.437287   
O23      O      0.198030000000     0.023860000000     0.244400000000    -0.434078   
O24      O      0.288130000000     0.019770000000     0.241880000000    -0.440238   
O25      O      0.212840000000     0.037630000000     0.495920000000    -0.432174   
O26      O      0.217240000000     0.447580000000     0.987880000000    -0.438479   
O27      O      0.214610000000     0.988590000000     0.036810000000    -0.433124   
O28      O      0.215540000000     0.495170000000     0.446700000000    -0.439797   
O29      O      0.268110000000     0.995020000000     0.447510000000    -0.44183    
O30      O      0.266460000000     0.497180000000     0.037700000000    -0.442237   
O31      O      0.269350000000     0.450080000000     0.493950000000    -0.443356   
O32      O      0.265140000000     0.040300000000     0.991140000000    -0.441702   
O33      O      0.494440000000     0.214880000000     0.037350000000    -0.435543   
O34      O      0.998020000000     0.217880000000     0.447270000000    -0.444346   
O35      O      0.040540000000     0.218500000000     0.993300000000    -0.437762   
O36      O      0.450270000000     0.214390000000     0.489760000000    -0.441962   
O37      O      0.447710000000     0.266790000000     0.993830000000    -0.449433   
O38      O      0.037940000000     0.270940000000     0.496300000000    -0.43696    
O39      O      0.493520000000     0.270260000000     0.449040000000    -0.441209   
O40      O      0.990640000000     0.267330000000     0.039420000000    -0.441764   
O41      O      0.198620000000     0.242520000000     0.467060000000    -0.44512    
O42      O      0.289000000000     0.241120000000     0.465480000000    -0.440315   
O43      O      0.243640000000     0.197690000000     0.467960000000    -0.447898   
O44      O      0.243790000000     0.287720000000     0.464460000000    -0.445777   
O45      O      0.250260000000     0.289940000000     0.016540000000    -0.437365   
O46      O      0.238900000000     0.199970000000     0.020200000000    -0.434222   
O47      O      0.289470000000     0.240580000000     0.018030000000    -0.440174   
O48      O      0.199700000000     0.250980000000     0.018890000000    -0.433391   
O49      O      0.990190000000     0.037360000000     0.713310000000    -0.435662   
O50      O      0.496380000000     0.447330000000     0.717470000000    -0.448406   
O51      O      0.447260000000     0.988420000000     0.714840000000    -0.441927   
O52      O      0.037550000000     0.494600000000     0.716110000000    -0.439522   
O53      O      0.036420000000     0.998730000000     0.768470000000    -0.440194   
O54      O      0.446420000000     0.492920000000     0.767190000000    -0.44983    
O55      O      0.993670000000     0.449770000000     0.769870000000    -0.442683   
O56      O      0.487700000000     0.040080000000     0.765740000000    -0.441428   
O57      O      0.466620000000     0.246130000000     0.699070000000    -0.440944   
O58      O      0.469750000000     0.246240000000     0.789490000000    -0.445899   
O59      O      0.470880000000     0.290540000000     0.745360000000    -0.446408   
O60      O      0.465390000000     0.200140000000     0.744760000000    -0.440627   
O61      O      0.017720000000     0.196920000000     0.741070000000    -0.443773   
O62      O      0.023240000000     0.287120000000     0.741730000000    -0.434933   
O63      O      0.022030000000     0.241160000000     0.787310000000    -0.439886   
O64      O      0.018930000000     0.241280000000     0.697190000000    -0.441292   
O65      O      0.285780000000     0.467230000000     0.740850000000    -0.441551   
O66      O      0.195390000000     0.471370000000     0.741520000000    -0.446776   
O67      O      0.239370000000     0.469390000000     0.696910000000    -0.449246   
O68      O      0.239950000000     0.469080000000     0.787080000000    -0.443026   
O69      O      0.245090000000     0.021450000000     0.787530000000    -0.435873   
O70      O      0.242600000000     0.021890000000     0.697150000000    -0.437417   
O71      O      0.198030000000     0.023860000000     0.744400000000    -0.434105   
O72      O      0.288130000000     0.019770000000     0.741880000000    -0.440278   
O73      O      0.212840000000     0.037630000000     0.995920000000    -0.43313    
O74      O      0.217240000000     0.447580000000     0.487880000000    -0.438107   
O75      O      0.214610000000     0.988590000000     0.536810000000    -0.436906   
O76      O      0.215540000000     0.495170000000     0.946700000000    -0.439226   
O77      O      0.268110000000     0.995020000000     0.947510000000    -0.441167   
O78      O      0.266460000000     0.497180000000     0.537700000000    -0.446002   
O79      O      0.269350000000     0.450080000000     0.993950000000    -0.44436    
O80      O      0.265140000000     0.040300000000     0.491140000000    -0.441396   
O81      O      0.494440000000     0.214880000000     0.537360000000    -0.439239   
O82      O      0.998020000000     0.217880000000     0.947270000000    -0.443614   
O83      O      0.040540000000     0.218500000000     0.493300000000    -0.437321   
O84      O      0.450270000000     0.214390000000     0.989760000000    -0.442324   
O85      O      0.447710000000     0.266790000000     0.493830000000    -0.44847    
O86      O      0.037940000000     0.270940000000     0.996300000000    -0.437977   
O87      O      0.493520000000     0.270260000000     0.949050000000    -0.440672   
O88      O      0.990640000000     0.267330000000     0.539420000000    -0.44545    
O89      O      0.198620000000     0.242520000000     0.967050000000    -0.443476   
O90      O      0.289000000000     0.241120000000     0.965480000000    -0.438901   
O91      O      0.243640000000     0.197690000000     0.967970000000    -0.446476   
O92      O      0.243790000000     0.287720000000     0.964460000000    -0.444363   
O93      O      0.250260000000     0.289940000000     0.516540000000    -0.441432   
O94      O      0.238900000000     0.199970000000     0.520200000000    -0.438434   
O95      O      0.289470000000     0.240580000000     0.518040000000    -0.444243   
O96      O      0.199700000000     0.250980000000     0.518890000000    -0.437602   
O97      O      0.990190000000     0.537360000000     0.213310000000    -0.439473   
O98      O      0.496380000000     0.947330000000     0.217470000000    -0.447577   
O99      O      0.447260000000     0.488420000000     0.214840000000    -0.441422   
O100     O      0.037550000000     0.994600000000     0.216110000000    -0.439899   
O101     O      0.036420000000     0.498730000000     0.268470000000    -0.43913    
O102     O      0.446420000000     0.992920000000     0.267190000000    -0.450748   
O103     O      0.993670000000     0.949770000000     0.269870000000    -0.441993   
O104     O      0.487700000000     0.540080000000     0.265740000000    -0.445227   
O105     O      0.466620000000     0.746130000000     0.199070000000    -0.440946   
O106     O      0.469750000000     0.746240000000     0.289490000000    -0.445846   
O107     O      0.470880000000     0.790540000000     0.245360000000    -0.446395   
O108     O      0.465390000000     0.700140000000     0.244760000000    -0.440642   
O109     O      0.017720000000     0.696920000000     0.241070000000    -0.443801   
O110     O      0.023240000000     0.787120000000     0.241730000000    -0.434927   
O111     O      0.022030000000     0.741160000000     0.287300000000    -0.439892   
O112     O      0.018930000000     0.741280000000     0.197180000000    -0.441228   
O113     O      0.285780000000     0.967230000000     0.240850000000    -0.440076   
O114     O      0.195390000000     0.971370000000     0.241520000000    -0.445185   
O115     O      0.239370000000     0.969390000000     0.196910000000    -0.447594   
O116     O      0.239950000000     0.969080000000     0.287080000000    -0.441567   
O117     O      0.245090000000     0.521450000000     0.287530000000    -0.440028   
O118     O      0.242600000000     0.521890000000     0.197140000000    -0.441713   
O119     O      0.198030000000     0.523860000000     0.244400000000    -0.438448   
O120     O      0.288130000000     0.519770000000     0.241880000000    -0.444505   
O121     O      0.212840000000     0.537630000000     0.495920000000    -0.436025   
O122     O      0.217240000000     0.947580000000     0.987880000000    -0.437702   
O123     O      0.214610000000     0.488600000000     0.036810000000    -0.432814   
O124     O      0.215540000000     0.995170000000     0.446700000000    -0.440297   
O125     O      0.268110000000     0.495020000000     0.447510000000    -0.440888   
O126     O      0.266460000000     0.997180000000     0.037700000000    -0.443203   
O127     O      0.269350000000     0.950080000000     0.493950000000    -0.442701   
O128     O      0.265140000000     0.540300000000     0.991140000000    -0.445493   
O129     O      0.494440000000     0.714880000000     0.037350000000    -0.43564    
O130     O      0.998020000000     0.717880000000     0.447270000000    -0.44443    
O131     O      0.040540000000     0.718500000000     0.993300000000    -0.437821   
O132     O      0.450270000000     0.714390000000     0.489760000000    -0.442081   
O133     O      0.447710000000     0.766790000000     0.993830000000    -0.449493   
O134     O      0.037940000000     0.770940000000     0.496300000000    -0.437007   
O135     O      0.493520000000     0.770260000000     0.449040000000    -0.441276   
O136     O      0.990640000000     0.767330000000     0.039420000000    -0.441807   
O137     O      0.198620000000     0.742520000000     0.467060000000    -0.445139   
O138     O      0.289000000000     0.741120000000     0.465480000000    -0.440325   
O139     O      0.243640000000     0.697690000000     0.467960000000    -0.447928   
O140     O      0.243790000000     0.787720000000     0.464460000000    -0.445792   
O141     O      0.250260000000     0.789940000000     0.016540000000    -0.43736    
O142     O      0.238900000000     0.699970000000     0.020200000000    -0.434252   
O143     O      0.289470000000     0.740580000000     0.018030000000    -0.440198   
O144     O      0.199700000000     0.750980000000     0.018890000000    -0.43339    
O145     O      0.990190000000     0.537360000000     0.713310000000    -0.439589   
O146     O      0.496380000000     0.947330000000     0.717470000000    -0.447661   
O147     O      0.447260000000     0.488420000000     0.714840000000    -0.441542   
O148     O      0.037550000000     0.994600000000     0.716110000000    -0.439967   
O149     O      0.036420000000     0.498730000000     0.768470000000    -0.439179   
O150     O      0.446420000000     0.992920000000     0.767190000000    -0.450804   
O151     O      0.993670000000     0.949770000000     0.769870000000    -0.442057   
O152     O      0.487700000000     0.540080000000     0.765740000000    -0.445272   
O153     O      0.466620000000     0.746130000000     0.699070000000    -0.440973   
O154     O      0.469750000000     0.746240000000     0.789490000000    -0.445921   
O155     O      0.470880000000     0.790540000000     0.745360000000    -0.446422   
O156     O      0.465390000000     0.700140000000     0.744760000000    -0.440674   
O157     O      0.017720000000     0.696920000000     0.741070000000    -0.443804   
O158     O      0.023240000000     0.787120000000     0.741730000000    -0.434934   
O159     O      0.022030000000     0.741160000000     0.787310000000    -0.4399     
O160     O      0.018930000000     0.741280000000     0.697190000000    -0.441291   
O161     O      0.285780000000     0.967230000000     0.740850000000    -0.440097   
O162     O      0.195390000000     0.971370000000     0.741520000000    -0.445191   
O163     O      0.239370000000     0.969390000000     0.696910000000    -0.447625   
O164     O      0.239950000000     0.969080000000     0.787080000000    -0.44158    
O165     O      0.245090000000     0.521450000000     0.787530000000    -0.44006    
O166     O      0.242600000000     0.521890000000     0.697150000000    -0.441855   
O167     O      0.198030000000     0.523860000000     0.744400000000    -0.438484   
O168     O      0.288130000000     0.519770000000     0.741880000000    -0.444554   
O169     O      0.212840000000     0.537630000000     0.995920000000    -0.436983   
O170     O      0.217240000000     0.947580000000     0.487880000000    -0.437329   
O171     O      0.214610000000     0.488600000000     0.536810000000    -0.436597   
O172     O      0.215540000000     0.995170000000     0.946700000000    -0.439725   
O173     O      0.268110000000     0.495020000000     0.947510000000    -0.440224   
O174     O      0.266460000000     0.997180000000     0.537700000000    -0.44697    
O175     O      0.269350000000     0.950080000000     0.993950000000    -0.443705   
O176     O      0.265140000000     0.540300000000     0.491140000000    -0.445188   
O177     O      0.494440000000     0.714880000000     0.537360000000    -0.439347   
O178     O      0.998020000000     0.717880000000     0.947270000000    -0.443696   
O179     O      0.040540000000     0.718500000000     0.493300000000    -0.43738    
O180     O      0.450270000000     0.714390000000     0.989760000000    -0.442443   
O181     O      0.447710000000     0.766790000000     0.493830000000    -0.44853    
O182     O      0.037940000000     0.770940000000     0.996300000000    -0.438025   
O183     O      0.493520000000     0.770260000000     0.949050000000    -0.440738   
O184     O      0.990640000000     0.767330000000     0.539420000000    -0.4455     
O185     O      0.198620000000     0.742520000000     0.967050000000    -0.443492   
O186     O      0.289000000000     0.741120000000     0.965480000000    -0.438907   
O187     O      0.243640000000     0.697690000000     0.967970000000    -0.446503   
O188     O      0.243790000000     0.787720000000     0.964460000000    -0.444376   
O189     O      0.250260000000     0.789940000000     0.516540000000    -0.441434   
O190     O      0.238900000000     0.699970000000     0.520200000000    -0.438477   
O191     O      0.289470000000     0.740580000000     0.518040000000    -0.444277   
O192     O      0.199700000000     0.750980000000     0.518890000000    -0.43761    
O193     O      0.490200000000     0.037360000000     0.213310000000    -0.434606   
O194     O      0.996380000000     0.447330000000     0.217470000000    -0.449304   
O195     O      0.947260000000     0.988420000000     0.214840000000    -0.44117    
O196     O      0.537550000000     0.494600000000     0.216110000000    -0.443184   
O197     O      0.536420000000     0.998730000000     0.268470000000    -0.444044   
O198     O      0.946420000000     0.492920000000     0.267190000000    -0.449033   
O199     O      0.493670000000     0.449770000000     0.269870000000    -0.442248   
O200     O      0.987700000000     0.040080000000     0.265740000000    -0.441827   
O201     O      0.966620000000     0.246130000000     0.199070000000    -0.439496   
O202     O      0.969750000000     0.246240000000     0.289490000000    -0.444249   
O203     O      0.970880000000     0.290540000000     0.245360000000    -0.444824   
O204     O      0.965390000000     0.200140000000     0.244760000000    -0.439148   
O205     O      0.517720000000     0.196920000000     0.241070000000    -0.448007   
O206     O      0.523240000000     0.287120000000     0.241730000000    -0.439279   
O207     O      0.522030000000     0.241160000000     0.287300000000    -0.444267   
O208     O      0.518930000000     0.241280000000     0.197180000000    -0.445401   
O209     O      0.785780000000     0.467230000000     0.240850000000    -0.441538   
O210     O      0.695390000000     0.471370000000     0.241520000000    -0.446832   
O211     O      0.739370000000     0.469390000000     0.196910000000    -0.44923    
O212     O      0.739950000000     0.469080000000     0.287080000000    -0.443041   
O213     O      0.745090000000     0.021450000000     0.287530000000    -0.435845   
O214     O      0.742600000000     0.021890000000     0.197140000000    -0.437298   
O215     O      0.698030000000     0.023860000000     0.244400000000    -0.434084   
O216     O      0.788130000000     0.019770000000     0.241880000000    -0.440243   
O217     O      0.712840000000     0.037630000000     0.495920000000    -0.432266   
O218     O      0.717240000000     0.447580000000     0.987880000000    -0.438554   
O219     O      0.714610000000     0.988590000000     0.036810000000    -0.433195   
O220     O      0.715540000000     0.495170000000     0.446700000000    -0.439899   
O221     O      0.768110000000     0.995020000000     0.447510000000    -0.441879   
O222     O      0.766460000000     0.497180000000     0.037700000000    -0.442292   
O223     O      0.769350000000     0.450080000000     0.493950000000    -0.443417   
O224     O      0.765140000000     0.040300000000     0.991140000000    -0.441745   
O225     O      0.994440000000     0.214880000000     0.037350000000    -0.436513   
O226     O      0.498020000000     0.217880000000     0.447270000000    -0.443367   
O227     O      0.540540000000     0.218500000000     0.993300000000    -0.441456   
O228     O      0.950270000000     0.214390000000     0.489760000000    -0.44133    
O229     O      0.947710000000     0.266790000000     0.993830000000    -0.448705   
O230     O      0.537940000000     0.270940000000     0.496300000000    -0.440836   
O231     O      0.993520000000     0.270260000000     0.449040000000    -0.441589   
O232     O      0.490640000000     0.267330000000     0.039420000000    -0.441318   
O233     O      0.698620000000     0.242520000000     0.467060000000    -0.44517    
O234     O      0.789000000000     0.241120000000     0.465480000000    -0.440321   
O235     O      0.743640000000     0.197690000000     0.467960000000    -0.447911   
O236     O      0.743790000000     0.287720000000     0.464460000000    -0.445783   
O237     O      0.750260000000     0.289940000000     0.016540000000    -0.43737    
O238     O      0.738900000000     0.199970000000     0.020200000000    -0.43423    
O239     O      0.789470000000     0.240580000000     0.018030000000    -0.44019    
O240     O      0.699700000000     0.250980000000     0.018890000000    -0.433391   
O241     O      0.490200000000     0.037360000000     0.713310000000    -0.434709   
O242     O      0.996380000000     0.447330000000     0.717470000000    -0.449393   
O243     O      0.947260000000     0.988420000000     0.714840000000    -0.44129    
O244     O      0.537550000000     0.494600000000     0.716110000000    -0.443262   
O245     O      0.536420000000     0.998730000000     0.768470000000    -0.444102   
O246     O      0.946420000000     0.492920000000     0.767190000000    -0.449086   
O247     O      0.493670000000     0.449770000000     0.769870000000    -0.442314   
O248     O      0.987700000000     0.040080000000     0.765740000000    -0.441865   
O249     O      0.966620000000     0.246130000000     0.699070000000    -0.43952    
O250     O      0.969750000000     0.246240000000     0.789490000000    -0.444321   
O251     O      0.970880000000     0.290540000000     0.745360000000    -0.444848   
O252     O      0.965390000000     0.200140000000     0.744760000000    -0.439177   
O253     O      0.517720000000     0.196920000000     0.741070000000    -0.448019   
O254     O      0.523240000000     0.287120000000     0.741730000000    -0.439295   
O255     O      0.522030000000     0.241160000000     0.787310000000    -0.444284   
O256     O      0.518930000000     0.241280000000     0.697190000000    -0.445475   
O257     O      0.785780000000     0.467230000000     0.740850000000    -0.441561   
O258     O      0.695390000000     0.471370000000     0.741520000000    -0.446841   
O259     O      0.739370000000     0.469390000000     0.696910000000    -0.449263   
O260     O      0.739950000000     0.469080000000     0.787080000000    -0.443056   
O261     O      0.745090000000     0.021450000000     0.787530000000    -0.435871   
O262     O      0.742600000000     0.021890000000     0.697150000000    -0.437429   
O263     O      0.698030000000     0.023860000000     0.744400000000    -0.434111   
O264     O      0.788130000000     0.019770000000     0.741880000000    -0.440282   
O265     O      0.712840000000     0.037630000000     0.995920000000    -0.433224   
O266     O      0.717240000000     0.447580000000     0.487880000000    -0.438181   
O267     O      0.714610000000     0.988590000000     0.536810000000    -0.436988   
O268     O      0.715540000000     0.495170000000     0.946700000000    -0.439326   
O269     O      0.768110000000     0.995020000000     0.947510000000    -0.441214   
O270     O      0.766460000000     0.497180000000     0.537700000000    -0.446065   
O271     O      0.769350000000     0.450080000000     0.993950000000    -0.444422   
O272     O      0.765140000000     0.040300000000     0.491140000000    -0.441438   
O273     O      0.994440000000     0.214880000000     0.537360000000    -0.440213   
O274     O      0.498020000000     0.217880000000     0.947270000000    -0.442635   
O275     O      0.540540000000     0.218500000000     0.493300000000    -0.441015   
O276     O      0.950270000000     0.214390000000     0.989760000000    -0.441693   
O277     O      0.947710000000     0.266790000000     0.493830000000    -0.447742   
O278     O      0.537940000000     0.270940000000     0.996300000000    -0.441857   
O279     O      0.993520000000     0.270260000000     0.949050000000    -0.441052   
O280     O      0.490640000000     0.267330000000     0.539420000000    -0.445004   
O281     O      0.698620000000     0.242520000000     0.967050000000    -0.443523   
O282     O      0.789000000000     0.241120000000     0.965480000000    -0.438904   
O283     O      0.743640000000     0.197690000000     0.967970000000    -0.446485   
O284     O      0.743790000000     0.287720000000     0.964460000000    -0.444366   
O285     O      0.750260000000     0.289940000000     0.516540000000    -0.441447   
O286     O      0.738900000000     0.199970000000     0.520200000000    -0.438453   
O287     O      0.789470000000     0.240580000000     0.518040000000    -0.444266   
O288     O      0.699700000000     0.250980000000     0.518890000000    -0.437614   
O289     O      0.490200000000     0.537360000000     0.213310000000    -0.43852    
O290     O      0.996380000000     0.947330000000     0.217470000000    -0.448562   
O291     O      0.947260000000     0.488420000000     0.214840000000    -0.440785   
O292     O      0.537550000000     0.994600000000     0.216110000000    -0.44363    
O293     O      0.536420000000     0.498730000000     0.268470000000    -0.443028   
O294     O      0.946420000000     0.992920000000     0.267190000000    -0.450007   
O295     O      0.493670000000     0.949770000000     0.269870000000    -0.441623   
O296     O      0.987700000000     0.540080000000     0.265740000000    -0.445664   
O297     O      0.966620000000     0.746130000000     0.199070000000    -0.439522   
O298     O      0.969750000000     0.746240000000     0.289490000000    -0.444268   
O299     O      0.970880000000     0.790540000000     0.245360000000    -0.444836   
O300     O      0.965390000000     0.700140000000     0.244760000000    -0.439191   
O301     O      0.517720000000     0.696920000000     0.241070000000    -0.448051   
O302     O      0.523240000000     0.787120000000     0.241730000000    -0.439287   
O303     O      0.522030000000     0.741160000000     0.287300000000    -0.444291   
O304     O      0.518930000000     0.741280000000     0.197180000000    -0.44541    
O305     O      0.785780000000     0.967230000000     0.240850000000    -0.440083   
O306     O      0.695390000000     0.971370000000     0.241520000000    -0.445246   
O307     O      0.739370000000     0.969390000000     0.196910000000    -0.447608   
O308     O      0.739950000000     0.969080000000     0.287080000000    -0.441593   
O309     O      0.745090000000     0.521450000000     0.287530000000    -0.440035   
O310     O      0.742600000000     0.521890000000     0.197140000000    -0.441734   
O311     O      0.698030000000     0.523860000000     0.244400000000    -0.438467   
O312     O      0.788130000000     0.519770000000     0.241880000000    -0.444516   
O313     O      0.712840000000     0.537630000000     0.495920000000    -0.436128   
O314     O      0.717240000000     0.947580000000     0.987880000000    -0.437775   
O315     O      0.714610000000     0.488600000000     0.036810000000    -0.432885   
O316     O      0.715540000000     0.995170000000     0.446700000000    -0.440399   
O317     O      0.768110000000     0.495020000000     0.447510000000    -0.440936   
O318     O      0.766460000000     0.997180000000     0.037700000000    -0.443259   
O319     O      0.769350000000     0.950080000000     0.493950000000    -0.442761   
O320     O      0.765140000000     0.540300000000     0.991140000000    -0.445543   
O321     O      0.994440000000     0.714880000000     0.037350000000    -0.436613   
O322     O      0.498020000000     0.717880000000     0.447270000000    -0.443449   
O323     O      0.540540000000     0.718500000000     0.993300000000    -0.441526   
O324     O      0.950270000000     0.714390000000     0.489760000000    -0.441448   
O325     O      0.947710000000     0.766790000000     0.993830000000    -0.448764   
O326     O      0.537940000000     0.770940000000     0.496300000000    -0.440891   
O327     O      0.993520000000     0.770260000000     0.449040000000    -0.441655   
O328     O      0.490640000000     0.767330000000     0.039420000000    -0.441361   
O329     O      0.698620000000     0.742520000000     0.467060000000    -0.44519    
O330     O      0.789000000000     0.741120000000     0.465480000000    -0.44033    
O331     O      0.743640000000     0.697690000000     0.467960000000    -0.447941   
O332     O      0.743790000000     0.787720000000     0.464460000000    -0.445798   
O333     O      0.750260000000     0.789940000000     0.016540000000    -0.437365   
O334     O      0.738900000000     0.699970000000     0.020200000000    -0.434261   
O335     O      0.789470000000     0.740580000000     0.018030000000    -0.440214   
O336     O      0.699700000000     0.750980000000     0.018890000000    -0.43339    
O337     O      0.490200000000     0.537360000000     0.713310000000    -0.438633   
O338     O      0.996380000000     0.947330000000     0.717470000000    -0.448649   
O339     O      0.947260000000     0.488420000000     0.714840000000    -0.440905   
O340     O      0.537550000000     0.994600000000     0.716110000000    -0.443708   
O341     O      0.536420000000     0.498730000000     0.768470000000    -0.443084   
O342     O      0.946420000000     0.992920000000     0.767190000000    -0.450061   
O343     O      0.493670000000     0.949770000000     0.769870000000    -0.441688   
O344     O      0.987700000000     0.540080000000     0.765740000000    -0.445709   
O345     O      0.966620000000     0.746130000000     0.699070000000    -0.439546   
O346     O      0.969750000000     0.746240000000     0.789490000000    -0.44434    
O347     O      0.970880000000     0.790540000000     0.745360000000    -0.44486    
O348     O      0.965390000000     0.700140000000     0.744760000000    -0.439219   
O349     O      0.517720000000     0.696920000000     0.741070000000    -0.448063   
O350     O      0.523240000000     0.787120000000     0.741730000000    -0.439303   
O351     O      0.522030000000     0.741160000000     0.787310000000    -0.444309   
O352     O      0.518930000000     0.741280000000     0.697190000000    -0.445484   
O353     O      0.785780000000     0.967230000000     0.740850000000    -0.440104   
O354     O      0.695390000000     0.971370000000     0.741520000000    -0.445252   
O355     O      0.739370000000     0.969390000000     0.696910000000    -0.447638   
O356     O      0.739950000000     0.969080000000     0.787080000000    -0.441606   
O357     O      0.745090000000     0.521450000000     0.787530000000    -0.440067   
O358     O      0.742600000000     0.521890000000     0.697150000000    -0.441877   
O359     O      0.698030000000     0.523860000000     0.744400000000    -0.438503   
O360     O      0.788130000000     0.519770000000     0.741880000000    -0.444565   
O361     O      0.712840000000     0.537630000000     0.995920000000    -0.437088   
O362     O      0.717240000000     0.947580000000     0.487880000000    -0.437401   
O363     O      0.714610000000     0.488600000000     0.536810000000    -0.436679   
O364     O      0.715540000000     0.995170000000     0.946700000000    -0.439826   
O365     O      0.768110000000     0.495020000000     0.947510000000    -0.44027    
O366     O      0.766460000000     0.997180000000     0.537700000000    -0.447034   
O367     O      0.769350000000     0.950080000000     0.993950000000    -0.443767   
O368     O      0.765140000000     0.540300000000     0.491140000000    -0.445237   
O369     O      0.994440000000     0.714880000000     0.537360000000    -0.440323   
O370     O      0.498020000000     0.717880000000     0.947270000000    -0.442715   
O371     O      0.540540000000     0.718500000000     0.493300000000    -0.441084   
O372     O      0.950270000000     0.714390000000     0.989760000000    -0.441811   
O373     O      0.947710000000     0.766790000000     0.493830000000    -0.4478     
O374     O      0.537940000000     0.770940000000     0.996300000000    -0.441912   
O375     O      0.993520000000     0.770260000000     0.949050000000    -0.441117   
O376     O      0.490640000000     0.767330000000     0.539420000000    -0.445053   
O377     O      0.698620000000     0.742520000000     0.967050000000    -0.443539   
O378     O      0.789000000000     0.741120000000     0.965480000000    -0.43891    
O379     O      0.743640000000     0.697690000000     0.967970000000    -0.446512   
O380     O      0.743790000000     0.787720000000     0.964460000000    -0.444379   
O381     O      0.750260000000     0.789940000000     0.516540000000    -0.441449   
O382     O      0.738900000000     0.699970000000     0.520200000000    -0.438496   
O383     O      0.789470000000     0.740580000000     0.518040000000    -0.4443     
O384     O      0.699700000000     0.750980000000     0.518890000000    -0.437622   


