data_structure

_audit_creation_method RASPA-1.0
_audit_creation_date 2023-5-19
_audit_author_name 'Poobodin Mano'

_cell_length_a    42.3974
_cell_length_b    42.3924
_cell_length_c    42.3666
_cell_angle_alpha 90
_cell_angle_beta  90
_cell_angle_gamma 90
_cell_volume      76146.7

_symmetry_cell_setting          triclinic
_symmetry_space_group_name_Hall 'P 1'
_symmetry_space_group_name_H-M  'P 1'
_symmetry_Int_Tables_number     1

_symmetry_equiv_pos_as_xyz 'x,y,z'

loop_
_atom_site_label
_atom_site_type_symbol
_atom_site_fract_x
_atom_site_fract_y
_atom_site_fract_z
_atom_site_charge
Br1      Br     0.403690000000     0.286970000000     0.441200000000    -0.203942   
Br2      Br     0.151490000000     0.187190000000     0.030440000000    -0.156597   
Br3      Br     0.188370000000     0.333330000000     0.038950000000    -0.20574    
Br4      Br     0.192010000000     0.150000000000     0.036640000000    -0.160859   
Br5      Br     0.202530000000     0.438400000000     0.404910000000    -0.208941   
Br6      Br     0.191520000000     0.036460000000     0.154540000000    -0.204718   
Br7      Br     0.436820000000     0.204020000000     0.407700000000    -0.202975   
Br8      Br     0.051990000000     0.210240000000     0.084630000000    -0.200014   
Br9      Br     0.159800000000     0.030320000000     0.305350000000    -0.207269   
Br10     Br     0.407720000000     0.445810000000     0.294660000000    -0.224206   
Br11     Br     0.050960000000     0.407990000000     0.202530000000    -0.215885   
Br12     Br     0.459530000000     0.159030000000     0.185040000000    -0.212107   
Br13     Br     0.403690000000     0.286970000000     0.941200000000    -0.204598   
Br14     Br     0.151490000000     0.187190000000     0.530440000000    -0.158628   
Br15     Br     0.188370000000     0.333330000000     0.538950000000    -0.208809   
Br16     Br     0.192010000000     0.150000000000     0.536640000000    -0.162459   
Br17     Br     0.202530000000     0.438400000000     0.904910000000    -0.209831   
Br18     Br     0.191520000000     0.036460000000     0.654540000000    -0.205242   
Br19     Br     0.436820000000     0.204020000000     0.907700000000    -0.204103   
Br20     Br     0.051990000000     0.210240000000     0.584630000000    -0.201795   
Br21     Br     0.159800000000     0.030320000000     0.805350000000    -0.207575   
Br22     Br     0.407720000000     0.445810000000     0.794660000000    -0.224498   
Br23     Br     0.050960000000     0.407990000000     0.702530000000    -0.216426   
Br24     Br     0.459530000000     0.159030000000     0.685040000000    -0.212631   
Br25     Br     0.403690000000     0.786970000000     0.441200000000    -0.204113   
Br26     Br     0.151490000000     0.687180000000     0.030440000000    -0.156819   
Br27     Br     0.188370000000     0.833330000000     0.038950000000    -0.205951   
Br28     Br     0.192010000000     0.650000000000     0.036640000000    -0.161284   
Br29     Br     0.202530000000     0.938400000000     0.404910000000    -0.209736   
Br30     Br     0.191520000000     0.536460000000     0.154540000000    -0.207206   
Br31     Br     0.436820000000     0.704020000000     0.407700000000    -0.203421   
Br32     Br     0.051990000000     0.710240000000     0.084630000000    -0.200346   
Br33     Br     0.159800000000     0.530310000000     0.305350000000    -0.209899   
Br34     Br     0.407720000000     0.945810000000     0.294660000000    -0.225021   
Br35     Br     0.050960000000     0.907990000000     0.202530000000    -0.21636    
Br36     Br     0.459530000000     0.659030000000     0.185040000000    -0.21263    
Br37     Br     0.403690000000     0.786970000000     0.941200000000    -0.204768   
Br38     Br     0.151490000000     0.687180000000     0.530440000000    -0.158856   
Br39     Br     0.188370000000     0.833330000000     0.538950000000    -0.209023   
Br40     Br     0.192010000000     0.650000000000     0.536640000000    -0.162891   
Br41     Br     0.202530000000     0.938400000000     0.904910000000    -0.210625   
Br42     Br     0.191520000000     0.536460000000     0.654540000000    -0.207741   
Br43     Br     0.436820000000     0.704020000000     0.907700000000    -0.204552   
Br44     Br     0.051990000000     0.710240000000     0.584630000000    -0.202132   
Br45     Br     0.159800000000     0.530310000000     0.805350000000    -0.21021    
Br46     Br     0.407720000000     0.945810000000     0.794660000000    -0.225313   
Br47     Br     0.050960000000     0.907990000000     0.702530000000    -0.216902   
Br48     Br     0.459530000000     0.659030000000     0.685040000000    -0.213159   
Br49     Br     0.903690000000     0.286970000000     0.441200000000    -0.204407   
Br50     Br     0.651490000000     0.187190000000     0.030440000000    -0.156996   
Br51     Br     0.688370000000     0.333330000000     0.038950000000    -0.206124   
Br52     Br     0.692010000000     0.150000000000     0.036640000000    -0.161108   
Br53     Br     0.702530000000     0.438400000000     0.404910000000    -0.209378   
Br54     Br     0.691520000000     0.036460000000     0.154540000000    -0.20511    
Br55     Br     0.936820000000     0.204020000000     0.407700000000    -0.203683   
Br56     Br     0.551990000000     0.210240000000     0.084630000000    -0.202063   
Br57     Br     0.659800000000     0.030320000000     0.305350000000    -0.207761   
Br58     Br     0.907720000000     0.445810000000     0.294660000000    -0.224672   
Br59     Br     0.550960000000     0.407990000000     0.202530000000    -0.218033   
Br60     Br     0.959530000000     0.159030000000     0.185040000000    -0.213422   
Br61     Br     0.903690000000     0.286970000000     0.941200000000    -0.205062   
Br62     Br     0.651490000000     0.187190000000     0.530440000000    -0.159036   
Br63     Br     0.688370000000     0.333330000000     0.538950000000    -0.209206   
Br64     Br     0.692010000000     0.150000000000     0.536640000000    -0.162714   
Br65     Br     0.702530000000     0.438400000000     0.904910000000    -0.210272   
Br66     Br     0.691520000000     0.036460000000     0.654540000000    -0.205638   
Br67     Br     0.936820000000     0.204020000000     0.907700000000    -0.20481    
Br68     Br     0.551990000000     0.210240000000     0.584630000000    -0.203863   
Br69     Br     0.659800000000     0.030320000000     0.805350000000    -0.208068   
Br70     Br     0.907720000000     0.445810000000     0.794660000000    -0.224964   
Br71     Br     0.550960000000     0.407990000000     0.702530000000    -0.218585   
Br72     Br     0.959530000000     0.159030000000     0.685040000000    -0.213951   
Br73     Br     0.903690000000     0.786970000000     0.441200000000    -0.204578   
Br74     Br     0.651490000000     0.687180000000     0.030440000000    -0.15722    
Br75     Br     0.688370000000     0.833330000000     0.038950000000    -0.206336   
Br76     Br     0.692010000000     0.650000000000     0.036640000000    -0.161536   
Br77     Br     0.702530000000     0.938400000000     0.404910000000    -0.210176   
Br78     Br     0.691520000000     0.536460000000     0.154540000000    -0.20761    
Br79     Br     0.936820000000     0.704020000000     0.407700000000    -0.204131   
Br80     Br     0.551990000000     0.710240000000     0.084630000000    -0.202403   
Br81     Br     0.659800000000     0.530310000000     0.305350000000    -0.210402   
Br82     Br     0.907720000000     0.945810000000     0.294660000000    -0.225487   
Br83     Br     0.550960000000     0.907990000000     0.202530000000    -0.218511   
Br84     Br     0.959530000000     0.659030000000     0.185040000000    -0.213949   
Br85     Br     0.903690000000     0.786970000000     0.941200000000    -0.205232   
Br86     Br     0.651490000000     0.687180000000     0.530440000000    -0.159267   
Br87     Br     0.688370000000     0.833330000000     0.538950000000    -0.209421   
Br88     Br     0.692010000000     0.650000000000     0.536640000000    -0.163149   
Br89     Br     0.702530000000     0.938400000000     0.904910000000    -0.211068   
Br90     Br     0.691520000000     0.536460000000     0.654540000000    -0.208148   
Br91     Br     0.936820000000     0.704020000000     0.907700000000    -0.205262   
Br92     Br     0.551990000000     0.710240000000     0.584630000000    -0.204208   
Br93     Br     0.659800000000     0.530310000000     0.805350000000    -0.210715   
Br94     Br     0.907720000000     0.945810000000     0.794660000000    -0.225778   
Br95     Br     0.550960000000     0.907990000000     0.702530000000    -0.219064   
Br96     Br     0.959530000000     0.659030000000     0.685040000000    -0.214482   
C1       C      0.495400000000     0.057680000000     0.245330000000     0.434078   
C2       C      0.998580000000     0.437320000000     0.246940000000     0.450711   
C3       C      0.436730000000     0.995640000000     0.246730000000     0.447589   
C4       C      0.057110000000     0.998520000000     0.245440000000     0.43661    
C5       C      0.994150000000     0.245650000000     0.306810000000     0.426576   
C6       C      0.996620000000     0.249900000000     0.186690000000     0.432507   
C7       C      0.494410000000     0.187600000000     0.244600000000     0.448459   
C8       C      0.496850000000     0.307560000000     0.248300000000     0.433365   
C9       C      0.306970000000     0.495680000000     0.245260000000     0.433006   
C10      C      0.187010000000     0.497380000000     0.244260000000     0.452906   
C11      C      0.245910000000     0.995010000000     0.304460000000     0.43342    
C12      C      0.247880000000     0.997680000000     0.184410000000     0.440428   
C13      C      0.247110000000     0.433070000000     0.496730000000     0.438511   
C14      C      0.249590000000     0.053230000000     0.992480000000     0.434306   
C15      C      0.246580000000     0.491200000000     0.434310000000     0.449771   
C16      C      0.249980000000     0.495720000000     0.054520000000     0.433719   
C17      C      0.053260000000     0.249060000000     0.994350000000     0.436551   
C18      C      0.433130000000     0.249580000000     0.498690000000     0.452149   
C19      C      0.996370000000     0.251740000000     0.056810000000     0.446541   
C20      C      0.990850000000     0.246910000000     0.436710000000     0.453148   
C21      C      0.182970000000     0.243450000000     0.994120000000     0.443713   
C22      C      0.303400000000     0.244330000000     0.997810000000     0.425487   
C23      C      0.243930000000     0.182890000000     0.494240000000     0.447487   
C24      C      0.242850000000     0.303340000000     0.497820000000     0.44938    
C25      C      0.352400000000     0.232350000000     0.022260000000     0.0386441  
C26      C      0.351220000000     0.262170000000     0.475200000000     0.00210241 
C27      C      0.385360000000     0.232690000000     0.021480000000     0.0494484  
C28      C      0.384080000000     0.264880000000     0.475820000000     0.16142    
C29      C      0.102770000000     0.270550000000     0.978640000000     0.0369781  
C30      C      0.100510000000     0.224420000000     0.009710000000     0.012686   
C31      C      0.135700000000     0.267680000000     0.976980000000     0.0465215  
C32      C      0.133290000000     0.223210000000     0.010550000000     0.165799   
C33      C      0.268460000000     0.383530000000     0.482060000000     0.0366333  
C34      C      0.223100000000     0.385640000000     0.014340000000     0.01049    
C35      C      0.266320000000     0.350720000000     0.481340000000     0.0447321  
C36      C      0.222450000000     0.352640000000     0.015870000000     0.162698   
C37      C      0.269590000000     0.102800000000     0.475370000000     0.0360446  
C38      C      0.228110000000     0.100090000000     0.012390000000     0.0117126  
C39      C      0.266380000000     0.135730000000     0.474340000000     0.0419551  
C40      C      0.226610000000     0.132860000000     0.013410000000     0.160123   
C41      C      0.262750000000     0.015350000000     0.353720000000     0.0406444  
C42      C      0.228040000000     0.471810000000     0.352210000000     0.00708629 
C43      C      0.263910000000     0.013200000000     0.386520000000     0.0487518  
C44      C      0.227070000000     0.471240000000     0.385250000000     0.160957   
C45      C      0.273260000000     0.482400000000     0.103780000000     0.0337081  
C46      C      0.226940000000     0.013280000000     0.102260000000     0.00679826 
C47      C      0.271510000000     0.481670000000     0.136710000000     0.0427901  
C48      C      0.226520000000     0.014730000000     0.135210000000     0.161914   
C49      C      0.515210000000     0.261830000000     0.355950000000     0.0333344  
C50      C      0.470570000000     0.228550000000     0.354730000000     0.00205693 
C51      C      0.513250000000     0.263170000000     0.388750000000     0.0456027  
C52      C      0.470170000000     0.227650000000     0.387800000000     0.16308    
C53      C      0.975950000000     0.269220000000     0.138280000000     0.0361582  
C54      C      0.019670000000     0.234750000000     0.138130000000     0.0106505  
C55      C      0.977280000000     0.271020000000     0.105350000000     0.0434158  
C56      C      0.019420000000     0.234390000000     0.105150000000     0.165786   
C57      C      0.105510000000     0.985140000000     0.220630000000     0.0383479  
C58      C      0.105840000000     0.011480000000     0.269730000000     0.00869175 
C59      C      0.138410000000     0.983530000000     0.221300000000     0.050202   
C60      C      0.138840000000     0.012250000000     0.269230000000     0.164512   
C61      C      0.355790000000     0.015860000000     0.227250000000     0.036623   
C62      C      0.354920000000     0.474660000000     0.264730000000     0.000548399
C63      C      0.388660000000     0.014630000000     0.226700000000     0.0468836  
C64      C      0.387870000000     0.475460000000     0.266540000000     0.159298   
C65      C      0.976930000000     0.356650000000     0.266180000000     0.0354429  
C66      C      0.019370000000     0.355320000000     0.230100000000     0.00495013 
C67      C      0.978760000000     0.389510000000     0.266950000000     0.0418561  
C68      C      0.019320000000     0.388280000000     0.228570000000     0.16365    
C69      C      0.008350000000     0.106660000000     0.268960000000     0.0390983  
C70      C      0.480720000000     0.105780000000     0.220580000000     0.00290417 
C71      C      0.009190000000     0.139520000000     0.267840000000     0.0479983  
C72      C      0.479170000000     0.138820000000     0.220740000000     0.159407   
C73      C      0.495400000000     0.057680000000     0.745330000000     0.434095   
C74      C      0.998580000000     0.437320000000     0.746940000000     0.450736   
C75      C      0.436730000000     0.995640000000     0.746730000000     0.447606   
C76      C      0.057110000000     0.998520000000     0.745440000000     0.436632   
C77      C      0.994150000000     0.245650000000     0.806810000000     0.426556   
C78      C      0.996620000000     0.249900000000     0.686690000000     0.432448   
C79      C      0.494410000000     0.187600000000     0.744600000000     0.448465   
C80      C      0.496850000000     0.307560000000     0.748300000000     0.433349   
C81      C      0.306970000000     0.495680000000     0.745260000000     0.432987   
C82      C      0.187010000000     0.497380000000     0.744260000000     0.452917   
C83      C      0.245910000000     0.995010000000     0.804460000000     0.433414   
C84      C      0.247880000000     0.997680000000     0.684410000000     0.440376   
C85      C      0.247110000000     0.433070000000     0.996730000000     0.437477   
C86      C      0.249590000000     0.053230000000     0.492480000000     0.435318   
C87      C      0.246580000000     0.491200000000     0.934310000000     0.449255   
C88      C      0.249980000000     0.495720000000     0.554520000000     0.434726   
C89      C      0.053260000000     0.249060000000     0.494350000000     0.437931   
C90      C      0.433130000000     0.249580000000     0.998690000000     0.442731   
C91      C      0.996370000000     0.251740000000     0.556810000000     0.44783    
C92      C      0.990850000000     0.246910000000     0.936710000000     0.452468   
C93      C      0.182970000000     0.243450000000     0.494120000000     0.452174   
C94      C      0.303400000000     0.244330000000     0.497810000000     0.433598   
C95      C      0.243930000000     0.182890000000     0.994240000000     0.439096   
C96      C      0.242850000000     0.303340000000     0.997820000000     0.441106   
C97      C      0.352400000000     0.232350000000     0.522260000000     0.0336551  
C98      C      0.351220000000     0.262170000000     0.975200000000     0.000992599
C99      C      0.385360000000     0.232690000000     0.521480000000     0.0444864  
C100     C      0.384080000000     0.264880000000     0.975820000000     0.160435   
C101     C      0.102770000000     0.270550000000     0.478640000000     0.0379814  
C102     C      0.100510000000     0.224420000000     0.509710000000     0.00698491 
C103     C      0.135700000000     0.267680000000     0.476980000000     0.0480294  
C104     C      0.133290000000     0.223210000000     0.510550000000     0.161802   
C105     C      0.268460000000     0.383530000000     0.982060000000     0.0357604  
C106     C      0.223100000000     0.385640000000     0.514340000000     0.00466539 
C107     C      0.266320000000     0.350720000000     0.981340000000     0.0434004  
C108     C      0.222450000000     0.352640000000     0.515870000000     0.158598   
C109     C      0.269590000000     0.102800000000     0.975370000000     0.0351566  
C110     C      0.228110000000     0.100090000000     0.512390000000     0.00594291 
C111     C      0.266380000000     0.135730000000     0.974340000000     0.0405424  
C112     C      0.226610000000     0.132860000000     0.513400000000     0.156156   
C113     C      0.262750000000     0.015350000000     0.853720000000     0.0406046  
C114     C      0.228040000000     0.471810000000     0.852210000000     0.00702952 
C115     C      0.263910000000     0.013200000000     0.886520000000     0.0486341  
C116     C      0.227070000000     0.471240000000     0.885250000000     0.160939   
C117     C      0.273260000000     0.482400000000     0.603780000000     0.033422   
C118     C      0.226940000000     0.013280000000     0.602260000000     0.00655803 
C119     C      0.271510000000     0.481670000000     0.636710000000     0.0425601  
C120     C      0.226520000000     0.014730000000     0.635210000000     0.16177    
C121     C      0.515210000000     0.261830000000     0.855950000000     0.03328    
C122     C      0.470570000000     0.228550000000     0.854730000000     0.00199828 
C123     C      0.513250000000     0.263170000000     0.888750000000     0.0454835  
C124     C      0.470170000000     0.227650000000     0.887800000000     0.163062   
C125     C      0.975950000000     0.269220000000     0.638280000000     0.0359363  
C126     C      0.019670000000     0.234750000000     0.638130000000     0.0105066  
C127     C      0.977280000000     0.271020000000     0.605350000000     0.0432193  
C128     C      0.019420000000     0.234390000000     0.605150000000     0.165696   
C129     C      0.105510000000     0.985140000000     0.720630000000     0.0383019  
C130     C      0.105840000000     0.011480000000     0.769730000000     0.00866702 
C131     C      0.138410000000     0.983530000000     0.721300000000     0.0501617  
C132     C      0.138840000000     0.012250000000     0.769230000000     0.164516   
C133     C      0.355790000000     0.015860000000     0.727250000000     0.0365621  
C134     C      0.354920000000     0.474660000000     0.764730000000     0.000494329
C135     C      0.388660000000     0.014630000000     0.726700000000     0.0468069  
C136     C      0.387870000000     0.475460000000     0.766540000000     0.159266   
C137     C      0.976930000000     0.356650000000     0.766180000000     0.0353949  
C138     C      0.019370000000     0.355320000000     0.730110000000     0.00497144 
C139     C      0.978760000000     0.389510000000     0.766950000000     0.0417946  
C140     C      0.019320000000     0.388280000000     0.728570000000     0.163585   
C141     C      0.008350000000     0.106660000000     0.768960000000     0.0390745  
C142     C      0.480720000000     0.105780000000     0.720580000000     0.00284784 
C143     C      0.009190000000     0.139520000000     0.767840000000     0.0479743  
C144     C      0.479170000000     0.138820000000     0.720740000000     0.159401   
C145     C      0.495400000000     0.557680000000     0.245330000000     0.43469    
C146     C      0.998580000000     0.937310000000     0.246940000000     0.450284   
C147     C      0.436730000000     0.495640000000     0.246730000000     0.448339   
C148     C      0.057110000000     0.498520000000     0.245440000000     0.437407   
C149     C      0.994150000000     0.745650000000     0.306810000000     0.426546   
C150     C      0.996620000000     0.749900000000     0.186690000000     0.432493   
C151     C      0.494410000000     0.687600000000     0.244600000000     0.448432   
C152     C      0.496850000000     0.807560000000     0.248300000000     0.433359   
C153     C      0.306970000000     0.995680000000     0.245260000000     0.426872   
C154     C      0.187010000000     0.997380000000     0.244260000000     0.446609   
C155     C      0.245910000000     0.495010000000     0.304460000000     0.439633   
C156     C      0.247880000000     0.497680000000     0.184410000000     0.446919   
C157     C      0.247110000000     0.933070000000     0.496730000000     0.438172   
C158     C      0.249590000000     0.553220000000     0.992480000000     0.435075   
C159     C      0.246580000000     0.991200000000     0.434310000000     0.449033   
C160     C      0.249980000000     0.995720000000     0.054520000000     0.432943   
C161     C      0.053260000000     0.749060000000     0.994350000000     0.43657    
C162     C      0.433130000000     0.749580000000     0.498690000000     0.45217    
C163     C      0.996370000000     0.751740000000     0.056810000000     0.446558   
C164     C      0.990850000000     0.746910000000     0.436710000000     0.45317    
C165     C      0.182970000000     0.743450000000     0.994120000000     0.443676   
C166     C      0.303400000000     0.744330000000     0.997810000000     0.425461   
C167     C      0.243930000000     0.682890000000     0.494240000000     0.447425   
C168     C      0.242850000000     0.803340000000     0.497820000000     0.449419   
C169     C      0.352400000000     0.732350000000     0.022260000000     0.0386036  
C170     C      0.351220000000     0.762170000000     0.475200000000     0.00206743 
C171     C      0.385360000000     0.732690000000     0.021480000000     0.0493966  
C172     C      0.384080000000     0.764880000000     0.475820000000     0.161399   
C173     C      0.102770000000     0.770550000000     0.978640000000     0.0369567  
C174     C      0.100510000000     0.724430000000     0.009710000000     0.0127663  
C175     C      0.135700000000     0.767680000000     0.976980000000     0.0464777  
C176     C      0.133290000000     0.723210000000     0.010550000000     0.165708   
C177     C      0.268460000000     0.883530000000     0.482060000000     0.0365872  
C178     C      0.223100000000     0.885650000000     0.014340000000     0.0104891  
C179     C      0.266320000000     0.850720000000     0.481340000000     0.044705   
C180     C      0.222450000000     0.852640000000     0.015870000000     0.162657   
C181     C      0.269590000000     0.602800000000     0.475370000000     0.0358268  
C182     C      0.228110000000     0.600090000000     0.012390000000     0.0115452  
C183     C      0.266380000000     0.635730000000     0.474340000000     0.0417922  
C184     C      0.226610000000     0.632860000000     0.013410000000     0.159998   
C185     C      0.262750000000     0.515350000000     0.353720000000     0.0370421  
C186     C      0.228040000000     0.971810000000     0.352210000000     0.00597347 
C187     C      0.263910000000     0.513200000000     0.386520000000     0.0445597  
C188     C      0.227070000000     0.971240000000     0.385250000000     0.160412   
C189     C      0.273260000000     0.982400000000     0.103780000000     0.0330386  
C190     C      0.226940000000     0.513280000000     0.102260000000     0.00246787 
C191     C      0.271510000000     0.981670000000     0.136710000000     0.0417481  
C192     C      0.226520000000     0.514730000000     0.135210000000     0.158952   
C193     C      0.515210000000     0.761840000000     0.355950000000     0.033228   
C194     C      0.470570000000     0.728550000000     0.354730000000     0.0020031  
C195     C      0.513250000000     0.763170000000     0.388750000000     0.0455982  
C196     C      0.470170000000     0.727650000000     0.387800000000     0.163056   
C197     C      0.975950000000     0.769220000000     0.138280000000     0.0361277  
C198     C      0.019670000000     0.734750000000     0.138130000000     0.0106273  
C199     C      0.977280000000     0.771020000000     0.105350000000     0.0433775  
C200     C      0.019420000000     0.734390000000     0.105150000000     0.165768   
C201     C      0.105510000000     0.485140000000     0.220630000000     0.039095   
C202     C      0.105840000000     0.511480000000     0.269730000000     0.00433814 
C203     C      0.138410000000     0.483530000000     0.221300000000     0.0513179  
C204     C      0.138840000000     0.512250000000     0.269230000000     0.16154    
C205     C      0.355790000000     0.515860000000     0.227250000000     0.033035   
C206     C      0.354920000000     0.974650000000     0.264730000000    -0.000506223
C207     C      0.388660000000     0.514630000000     0.226700000000     0.0426228  
C208     C      0.387870000000     0.975460000000     0.266540000000     0.15879    
C209     C      0.976930000000     0.856650000000     0.266180000000     0.0354107  
C210     C      0.019370000000     0.855320000000     0.230100000000     0.00491072 
C211     C      0.978760000000     0.889510000000     0.266950000000     0.041776   
C212     C      0.019320000000     0.888280000000     0.228570000000     0.163616   
C213     C      0.008350000000     0.606660000000     0.268960000000     0.0389071  
C214     C      0.480720000000     0.605780000000     0.220580000000     0.00270051 
C215     C      0.009190000000     0.639520000000     0.267840000000     0.047855   
C216     C      0.479170000000     0.638820000000     0.220740000000     0.159278   
C217     C      0.495400000000     0.557680000000     0.745330000000     0.434708   
C218     C      0.998580000000     0.937310000000     0.746940000000     0.450308   
C219     C      0.436730000000     0.495640000000     0.746730000000     0.448358   
C220     C      0.057110000000     0.498520000000     0.745440000000     0.43743    
C221     C      0.994150000000     0.745650000000     0.806810000000     0.426526   
C222     C      0.996620000000     0.749900000000     0.686690000000     0.432435   
C223     C      0.494410000000     0.687600000000     0.744600000000     0.448438   
C224     C      0.496850000000     0.807560000000     0.748300000000     0.433343   
C225     C      0.306970000000     0.995680000000     0.745260000000     0.426842   
C226     C      0.187010000000     0.997380000000     0.744260000000     0.446609   
C227     C      0.245910000000     0.495010000000     0.804460000000     0.439634   
C228     C      0.247880000000     0.497680000000     0.684410000000     0.446882   
C229     C      0.247110000000     0.933070000000     0.996730000000     0.43714    
C230     C      0.249590000000     0.553220000000     0.492480000000     0.436089   
C231     C      0.246580000000     0.991200000000     0.934310000000     0.448518   
C232     C      0.249980000000     0.995720000000     0.554520000000     0.433948   
C233     C      0.053260000000     0.749060000000     0.494350000000     0.437951   
C234     C      0.433130000000     0.749580000000     0.998690000000     0.442736   
C235     C      0.996370000000     0.751740000000     0.556810000000     0.447849   
C236     C      0.990850000000     0.746910000000     0.936710000000     0.452489   
C237     C      0.182970000000     0.743450000000     0.494120000000     0.45215    
C238     C      0.303400000000     0.744330000000     0.497810000000     0.433584   
C239     C      0.243930000000     0.682890000000     0.994240000000     0.439016   
C240     C      0.242850000000     0.803340000000     0.997820000000     0.441137   
C241     C      0.352400000000     0.732350000000     0.522260000000     0.0336054  
C242     C      0.351220000000     0.762170000000     0.975200000000     0.000956399
C243     C      0.385360000000     0.732690000000     0.521480000000     0.044426   
C244     C      0.384080000000     0.764880000000     0.975820000000     0.160412   
C245     C      0.102770000000     0.770550000000     0.478640000000     0.0379607  
C246     C      0.100510000000     0.724430000000     0.509710000000     0.00705285 
C247     C      0.135700000000     0.767680000000     0.476980000000     0.0479876  
C248     C      0.133290000000     0.723210000000     0.510550000000     0.161705   
C249     C      0.268460000000     0.883530000000     0.982060000000     0.0357151  
C250     C      0.223100000000     0.885650000000     0.514340000000     0.0046616  
C251     C      0.266320000000     0.850720000000     0.981340000000     0.0433731  
C252     C      0.222450000000     0.852640000000     0.515870000000     0.158552   
C253     C      0.269590000000     0.602800000000     0.975370000000     0.0349369  
C254     C      0.228110000000     0.600090000000     0.512390000000     0.00575151 
C255     C      0.266380000000     0.635730000000     0.974340000000     0.0403757  
C256     C      0.226610000000     0.632860000000     0.513400000000     0.156019   
C257     C      0.262750000000     0.515350000000     0.853720000000     0.0369967  
C258     C      0.228040000000     0.971810000000     0.852210000000     0.00591632 
C259     C      0.263910000000     0.513200000000     0.886520000000     0.0444393  
C260     C      0.227070000000     0.971240000000     0.885250000000     0.160394   
C261     C      0.273260000000     0.982400000000     0.603780000000     0.0327502  
C262     C      0.226940000000     0.513280000000     0.602260000000     0.00220554 
C263     C      0.271510000000     0.981670000000     0.636710000000     0.0415154  
C264     C      0.226520000000     0.514730000000     0.635210000000     0.158798   
C265     C      0.515210000000     0.761840000000     0.855950000000     0.0331737  
C266     C      0.470570000000     0.728550000000     0.854730000000     0.00194432 
C267     C      0.513250000000     0.763170000000     0.888750000000     0.0454789  
C268     C      0.470170000000     0.727650000000     0.887800000000     0.163038   
C269     C      0.975950000000     0.769220000000     0.638280000000     0.0359054  
C270     C      0.019670000000     0.734750000000     0.638130000000     0.0104829  
C271     C      0.977280000000     0.771020000000     0.605350000000     0.0431806  
C272     C      0.019420000000     0.734390000000     0.605150000000     0.165678   
C273     C      0.105510000000     0.485140000000     0.720630000000     0.0390501  
C274     C      0.105840000000     0.511480000000     0.769730000000     0.00430331 
C275     C      0.138410000000     0.483530000000     0.721300000000     0.0512796  
C276     C      0.138840000000     0.512250000000     0.769230000000     0.161536   
C277     C      0.355790000000     0.515860000000     0.727250000000     0.032965   
C278     C      0.354920000000     0.974650000000     0.764730000000    -0.000561645
C279     C      0.388660000000     0.514630000000     0.726700000000     0.0425354  
C280     C      0.387870000000     0.975460000000     0.766540000000     0.158758   
C281     C      0.976930000000     0.856650000000     0.766180000000     0.0353627  
C282     C      0.019370000000     0.855320000000     0.730110000000     0.00493196 
C283     C      0.978760000000     0.889510000000     0.766950000000     0.0417145  
C284     C      0.019320000000     0.888280000000     0.728570000000     0.16355    
C285     C      0.008350000000     0.606660000000     0.768960000000     0.0388828  
C286     C      0.480720000000     0.605780000000     0.720580000000     0.00264353 
C287     C      0.009190000000     0.639520000000     0.767840000000     0.0478307  
C288     C      0.479170000000     0.638820000000     0.720740000000     0.159272   
C289     C      0.995400000000     0.057680000000     0.245330000000     0.433317   
C290     C      0.498580000000     0.437320000000     0.246940000000     0.451573   
C291     C      0.936730000000     0.995640000000     0.246730000000     0.447219   
C292     C      0.557110000000     0.998520000000     0.245440000000     0.437318   
C293     C      0.494150000000     0.245650000000     0.306810000000     0.432642   
C294     C      0.496620000000     0.249900000000     0.186690000000     0.438523   
C295     C      0.994410000000     0.187600000000     0.244600000000     0.442148   
C296     C      0.996850000000     0.307560000000     0.248300000000     0.427306   
C297     C      0.806970000000     0.495680000000     0.245260000000     0.433002   
C298     C      0.687010000000     0.497380000000     0.244260000000     0.452889   
C299     C      0.745910000000     0.995010000000     0.304460000000     0.433409   
C300     C      0.747880000000     0.997680000000     0.184410000000     0.440418   
C301     C      0.747110000000     0.433070000000     0.496730000000     0.438525   
C302     C      0.749590000000     0.053230000000     0.992480000000     0.434317   
C303     C      0.746580000000     0.491200000000     0.434310000000     0.449787   
C304     C      0.749970000000     0.495720000000     0.054520000000     0.43374    
C305     C      0.553260000000     0.249060000000     0.994350000000     0.437136   
C306     C      0.933130000000     0.249580000000     0.498690000000     0.451827   
C307     C      0.496370000000     0.251740000000     0.056810000000     0.447397   
C308     C      0.490860000000     0.246910000000     0.436710000000     0.453862   
C309     C      0.682970000000     0.243450000000     0.994120000000     0.443671   
C310     C      0.803400000000     0.244330000000     0.997810000000     0.425475   
C311     C      0.743930000000     0.182890000000     0.494240000000     0.447484   
C312     C      0.742850000000     0.303340000000     0.497820000000     0.449382   
C313     C      0.852400000000     0.232350000000     0.022260000000     0.0386216  
C314     C      0.851220000000     0.262170000000     0.475200000000     0.0020707  
C315     C      0.885360000000     0.232690000000     0.021480000000     0.0493889  
C316     C      0.884080000000     0.264880000000     0.475820000000     0.161423   
C317     C      0.602770000000     0.270550000000     0.978640000000     0.0368014  
C318     C      0.600510000000     0.224420000000     0.009710000000     0.0125453  
C319     C      0.635700000000     0.267680000000     0.976980000000     0.0463655  
C320     C      0.633290000000     0.223210000000     0.010550000000     0.16571    
C321     C      0.768460000000     0.383530000000     0.482060000000     0.0366114  
C322     C      0.723100000000     0.385640000000     0.014340000000     0.0104205  
C323     C      0.766320000000     0.350720000000     0.481340000000     0.0447083  
C324     C      0.722450000000     0.352640000000     0.015870000000     0.162714   
C325     C      0.769590000000     0.102800000000     0.475370000000     0.0360105  
C326     C      0.728110000000     0.100090000000     0.012390000000     0.0116794  
C327     C      0.766380000000     0.135730000000     0.474340000000     0.0419198  
C328     C      0.726610000000     0.132860000000     0.013410000000     0.16011    
C329     C      0.762750000000     0.015350000000     0.353720000000     0.0406414  
C330     C      0.728040000000     0.471810000000     0.352210000000     0.00705398 
C331     C      0.763920000000     0.013200000000     0.386520000000     0.048665   
C332     C      0.727070000000     0.471240000000     0.385250000000     0.16093    
C333     C      0.773260000000     0.482400000000     0.103780000000     0.0336916  
C334     C      0.726940000000     0.013280000000     0.102260000000     0.00671447 
C335     C      0.771510000000     0.481670000000     0.136710000000     0.042762   
C336     C      0.726520000000     0.014730000000     0.135210000000     0.16194    
C337     C      0.015210000000     0.261830000000     0.355950000000     0.0369391  
C338     C      0.970570000000     0.228550000000     0.354730000000     0.00104479 
C339     C      0.013250000000     0.263170000000     0.388750000000     0.0497895  
C340     C      0.970160000000     0.227650000000     0.387800000000     0.162548   
C341     C      0.475950000000     0.269220000000     0.138280000000     0.0371295  
C342     C      0.519670000000     0.234750000000     0.138130000000     0.00696202 
C343     C      0.477270000000     0.271020000000     0.105350000000     0.0440047  
C344     C      0.519420000000     0.234390000000     0.105150000000     0.16221    
C345     C      0.605510000000     0.985140000000     0.220630000000     0.0381659  
C346     C      0.605840000000     0.011480000000     0.269730000000     0.0085035  
C347     C      0.638400000000     0.983530000000     0.221300000000     0.050037   
C348     C      0.638840000000     0.012250000000     0.269230000000     0.164402   
C349     C      0.855790000000     0.015860000000     0.227250000000     0.0365972  
C350     C      0.854920000000     0.474660000000     0.264730000000     0.000508274
C351     C      0.888660000000     0.014630000000     0.226700000000     0.0467913  
C352     C      0.887870000000     0.475460000000     0.266540000000     0.159265   
C353     C      0.476930000000     0.356650000000     0.266180000000     0.0363718  
C354     C      0.519370000000     0.355320000000     0.230100000000     0.00127007 
C355     C      0.478760000000     0.389510000000     0.266950000000     0.0425339  
C356     C      0.519320000000     0.388280000000     0.228570000000     0.160075   
C357     C      0.508350000000     0.106660000000     0.268960000000     0.03494    
C358     C      0.980720000000     0.105780000000     0.220580000000     0.00220491 
C359     C      0.509190000000     0.139520000000     0.267840000000     0.0443942  
C360     C      0.979170000000     0.138820000000     0.220740000000     0.158602   
C361     C      0.995400000000     0.057680000000     0.745330000000     0.433333   
C362     C      0.498580000000     0.437320000000     0.746940000000     0.451599   
C363     C      0.936730000000     0.995640000000     0.746730000000     0.447236   
C364     C      0.557110000000     0.998520000000     0.745440000000     0.437342   
C365     C      0.494150000000     0.245650000000     0.806810000000     0.432634   
C366     C      0.496620000000     0.249900000000     0.686690000000     0.438484   
C367     C      0.994410000000     0.187600000000     0.744600000000     0.442138   
C368     C      0.996850000000     0.307560000000     0.748300000000     0.427275   
C369     C      0.806970000000     0.495680000000     0.745260000000     0.432983   
C370     C      0.687010000000     0.497380000000     0.744260000000     0.4529     
C371     C      0.745910000000     0.995010000000     0.804460000000     0.433402   
C372     C      0.747880000000     0.997680000000     0.684410000000     0.440365   
C373     C      0.747110000000     0.433070000000     0.996730000000     0.43749    
C374     C      0.749590000000     0.053230000000     0.492480000000     0.435331   
C375     C      0.746580000000     0.491200000000     0.934310000000     0.44927    
C376     C      0.749970000000     0.495720000000     0.554520000000     0.434749   
C377     C      0.553260000000     0.249060000000     0.494350000000     0.438519   
C378     C      0.933130000000     0.249580000000     0.998690000000     0.442411   
C379     C      0.496370000000     0.251740000000     0.556810000000     0.448688   
C380     C      0.490860000000     0.246910000000     0.936710000000     0.453181   
C381     C      0.682970000000     0.243450000000     0.494120000000     0.452155   
C382     C      0.803400000000     0.244330000000     0.497810000000     0.433597   
C383     C      0.743930000000     0.182890000000     0.994240000000     0.439075   
C384     C      0.742850000000     0.303340000000     0.997820000000     0.44109    
C385     C      0.852400000000     0.232350000000     0.522260000000     0.0336257  
C386     C      0.851220000000     0.262170000000     0.975200000000     0.00096038 
C387     C      0.885360000000     0.232690000000     0.521480000000     0.0444247  
C388     C      0.884080000000     0.264880000000     0.975820000000     0.160437   
C389     C      0.602770000000     0.270550000000     0.478640000000     0.037806   
C390     C      0.600510000000     0.224420000000     0.509710000000     0.00681308 
C391     C      0.635700000000     0.267680000000     0.476980000000     0.0478794  
C392     C      0.633290000000     0.223210000000     0.510550000000     0.1617     
C393     C      0.768460000000     0.383530000000     0.982060000000     0.0357374  
C394     C      0.723100000000     0.385640000000     0.514340000000     0.00458126 
C395     C      0.766320000000     0.350720000000     0.981340000000     0.0433743  
C396     C      0.722450000000     0.352640000000     0.515870000000     0.158604   
C397     C      0.769590000000     0.102800000000     0.975370000000     0.0351213  
C398     C      0.728110000000     0.100090000000     0.512390000000     0.00589633 
C399     C      0.766380000000     0.135730000000     0.974340000000     0.0405047  
C400     C      0.726610000000     0.132860000000     0.513400000000     0.156133   
C401     C      0.762750000000     0.015350000000     0.853720000000     0.0406016  
C402     C      0.728040000000     0.471810000000     0.852210000000     0.00699704 
C403     C      0.763920000000     0.013200000000     0.886520000000     0.0485471  
C404     C      0.727070000000     0.471240000000     0.885250000000     0.160912   
C405     C      0.773260000000     0.482400000000     0.603780000000     0.033405   
C406     C      0.726940000000     0.013280000000     0.602260000000     0.00647374 
C407     C      0.771510000000     0.481670000000     0.636710000000     0.0425314  
C408     C      0.726520000000     0.014730000000     0.635210000000     0.161796   
C409     C      0.015210000000     0.261830000000     0.855950000000     0.0368932  
C410     C      0.970570000000     0.228550000000     0.854730000000     0.000985079
C411     C      0.013250000000     0.263170000000     0.888750000000     0.0496766  
C412     C      0.970160000000     0.227650000000     0.887800000000     0.16253    
C413     C      0.475950000000     0.269220000000     0.638280000000     0.0369111  
C414     C      0.519670000000     0.234750000000     0.638130000000     0.00680206 
C415     C      0.477270000000     0.271020000000     0.605350000000     0.0438101  
C416     C      0.519420000000     0.234390000000     0.605150000000     0.162098   
C417     C      0.605510000000     0.985140000000     0.720630000000     0.0381193  
C418     C      0.605840000000     0.011480000000     0.769730000000     0.00847818 
C419     C      0.638400000000     0.983530000000     0.721300000000     0.0499961  
C420     C      0.638840000000     0.012250000000     0.769230000000     0.164404   
C421     C      0.855790000000     0.015860000000     0.727250000000     0.0365362  
C422     C      0.854920000000     0.474660000000     0.764730000000     0.000454188
C423     C      0.888660000000     0.014630000000     0.726700000000     0.0467143  
C424     C      0.887870000000     0.475460000000     0.766540000000     0.159233   
C425     C      0.476930000000     0.356650000000     0.766180000000     0.0363256  
C426     C      0.519370000000     0.355320000000     0.730110000000     0.00127855 
C427     C      0.478760000000     0.389510000000     0.766950000000     0.0424736  
C428     C      0.519320000000     0.388280000000     0.728570000000     0.159999   
C429     C      0.508350000000     0.106660000000     0.768960000000     0.0349029  
C430     C      0.980720000000     0.105780000000     0.720580000000     0.00214697 
C431     C      0.509190000000     0.139520000000     0.767840000000     0.0443586  
C432     C      0.979170000000     0.138820000000     0.720740000000     0.158595   
C433     C      0.995400000000     0.557680000000     0.245330000000     0.433927   
C434     C      0.498580000000     0.937310000000     0.246940000000     0.451144   
C435     C      0.936730000000     0.495640000000     0.246730000000     0.447969   
C436     C      0.557110000000     0.498520000000     0.245440000000     0.438116   
C437     C      0.494150000000     0.745650000000     0.306810000000     0.432625   
C438     C      0.496620000000     0.749900000000     0.186690000000     0.438523   
C439     C      0.994410000000     0.687600000000     0.244600000000     0.442104   
C440     C      0.996850000000     0.807560000000     0.248300000000     0.427291   
C441     C      0.806970000000     0.995680000000     0.245260000000     0.426859   
C442     C      0.687010000000     0.997380000000     0.244260000000     0.446575   
C443     C      0.745910000000     0.495010000000     0.304460000000     0.439634   
C444     C      0.747880000000     0.497680000000     0.184410000000     0.446922   
C445     C      0.747110000000     0.933070000000     0.496730000000     0.438186   
C446     C      0.749590000000     0.553220000000     0.992480000000     0.435087   
C447     C      0.746580000000     0.991200000000     0.434310000000     0.449048   
C448     C      0.749970000000     0.995720000000     0.054520000000     0.432962   
C449     C      0.553260000000     0.749060000000     0.994350000000     0.437156   
C450     C      0.933130000000     0.749580000000     0.498690000000     0.451848   
C451     C      0.496370000000     0.751740000000     0.056810000000     0.447415   
C452     C      0.490860000000     0.746910000000     0.436710000000     0.453885   
C453     C      0.682970000000     0.743450000000     0.994120000000     0.443633   
C454     C      0.803400000000     0.744330000000     0.997810000000     0.425449   
C455     C      0.743930000000     0.682890000000     0.494240000000     0.447421   
C456     C      0.742850000000     0.803340000000     0.497820000000     0.449421   
C457     C      0.852400000000     0.732350000000     0.022260000000     0.0385809  
C458     C      0.851220000000     0.762170000000     0.475200000000     0.00203571 
C459     C      0.885360000000     0.732690000000     0.021480000000     0.049337   
C460     C      0.884080000000     0.764880000000     0.475820000000     0.161401   
C461     C      0.602770000000     0.770550000000     0.978640000000     0.0367795  
C462     C      0.600510000000     0.724430000000     0.009710000000     0.0126251  
C463     C      0.635700000000     0.767680000000     0.976980000000     0.0463214  
C464     C      0.633290000000     0.723210000000     0.010550000000     0.165619   
C465     C      0.768460000000     0.883530000000     0.482060000000     0.0365653  
C466     C      0.723100000000     0.885650000000     0.014340000000     0.0104195  
C467     C      0.766320000000     0.850720000000     0.481340000000     0.0446813  
C468     C      0.722450000000     0.852640000000     0.015870000000     0.162672   
C469     C      0.769590000000     0.602800000000     0.475370000000     0.0357921  
C470     C      0.728110000000     0.600090000000     0.012390000000     0.0115114  
C471     C      0.766380000000     0.635730000000     0.474340000000     0.0417564  
C472     C      0.726610000000     0.632860000000     0.013410000000     0.159985   
C473     C      0.762750000000     0.515350000000     0.353720000000     0.037029   
C474     C      0.728040000000     0.971810000000     0.352210000000     0.00593897 
C475     C      0.763920000000     0.513200000000     0.386520000000     0.0444635  
C476     C      0.727070000000     0.971240000000     0.385250000000     0.160384   
C477     C      0.773260000000     0.982400000000     0.103780000000     0.0330213  
C478     C      0.726940000000     0.513280000000     0.102260000000     0.00237236 
C479     C      0.771510000000     0.981670000000     0.136710000000     0.0417182  
C480     C      0.726520000000     0.514730000000     0.135210000000     0.158971   
C481     C      0.015210000000     0.761840000000     0.355950000000     0.036841   
C482     C      0.970570000000     0.728550000000     0.354730000000     0.000988772
C483     C      0.013250000000     0.763170000000     0.388750000000     0.0497962  
C484     C      0.970160000000     0.727650000000     0.387800000000     0.162524   
C485     C      0.475950000000     0.769220000000     0.138280000000     0.0371004  
C486     C      0.519670000000     0.734750000000     0.138130000000     0.00692925 
C487     C      0.477270000000     0.771020000000     0.105350000000     0.0439672  
C488     C      0.519420000000     0.734390000000     0.105150000000     0.162182   
C489     C      0.605510000000     0.485140000000     0.220630000000     0.0389141  
C490     C      0.605840000000     0.511480000000     0.269730000000     0.0041261  
C491     C      0.638400000000     0.483530000000     0.221300000000     0.0511573  
C492     C      0.638840000000     0.512250000000     0.269230000000     0.161419   
C493     C      0.855790000000     0.515860000000     0.227250000000     0.0330031  
C494     C      0.854920000000     0.974650000000     0.264730000000    -0.000546866
C495     C      0.888660000000     0.514630000000     0.226700000000     0.0425277  
C496     C      0.887870000000     0.975460000000     0.266540000000     0.158757   
C497     C      0.476930000000     0.856650000000     0.266180000000     0.03634    
C498     C      0.519370000000     0.855320000000     0.230100000000     0.0012247  
C499     C      0.478760000000     0.889510000000     0.266950000000     0.0424539  
C500     C      0.519320000000     0.888280000000     0.228570000000     0.160038   
C501     C      0.508350000000     0.606660000000     0.268960000000     0.0347261  
C502     C      0.980720000000     0.605780000000     0.220580000000     0.00199941 
C503     C      0.509190000000     0.639520000000     0.267840000000     0.0442377  
C504     C      0.979170000000     0.638820000000     0.220740000000     0.158471   
C505     C      0.995400000000     0.557680000000     0.745330000000     0.433943   
C506     C      0.498580000000     0.937310000000     0.746940000000     0.45117    
C507     C      0.936730000000     0.495640000000     0.746730000000     0.447987   
C508     C      0.557110000000     0.498520000000     0.745440000000     0.438141   
C509     C      0.494150000000     0.745650000000     0.806810000000     0.432617   
C510     C      0.496620000000     0.749900000000     0.686690000000     0.438483   
C511     C      0.994410000000     0.687600000000     0.744600000000     0.442094   
C512     C      0.996850000000     0.807560000000     0.748300000000     0.42726    
C513     C      0.806970000000     0.995680000000     0.745260000000     0.426829   
C514     C      0.687010000000     0.997380000000     0.744260000000     0.446575   
C515     C      0.745910000000     0.495010000000     0.804460000000     0.439635   
C516     C      0.747880000000     0.497680000000     0.684410000000     0.446884   
C517     C      0.747110000000     0.933070000000     0.996730000000     0.437153   
C518     C      0.749590000000     0.553220000000     0.492480000000     0.436104   
C519     C      0.746580000000     0.991200000000     0.934310000000     0.448532   
C520     C      0.749970000000     0.995720000000     0.554520000000     0.433969   
C521     C      0.553260000000     0.749060000000     0.494350000000     0.438541   
C522     C      0.933130000000     0.749580000000     0.998690000000     0.442415   
C523     C      0.496370000000     0.751740000000     0.556810000000     0.448708   
C524     C      0.490860000000     0.746910000000     0.936710000000     0.453203   
C525     C      0.682970000000     0.743450000000     0.494120000000     0.45213    
C526     C      0.803400000000     0.744330000000     0.497810000000     0.433583   
C527     C      0.743930000000     0.682890000000     0.994240000000     0.438995   
C528     C      0.742850000000     0.803340000000     0.997820000000     0.441122   
C529     C      0.852400000000     0.732350000000     0.522260000000     0.0335759  
C530     C      0.851220000000     0.762170000000     0.975200000000     0.000924168
C531     C      0.885360000000     0.732690000000     0.521480000000     0.0443641  
C532     C      0.884080000000     0.764880000000     0.975820000000     0.160415   
C533     C      0.602770000000     0.770550000000     0.478640000000     0.0377848  
C534     C      0.600510000000     0.724430000000     0.509710000000     0.0068805  
C535     C      0.635700000000     0.767680000000     0.476980000000     0.0478372  
C536     C      0.633290000000     0.723210000000     0.510550000000     0.161602   
C537     C      0.768460000000     0.883530000000     0.982060000000     0.0356921  
C538     C      0.723100000000     0.885650000000     0.514340000000     0.00457737 
C539     C      0.766320000000     0.850720000000     0.981340000000     0.0433471  
C540     C      0.722450000000     0.852640000000     0.515870000000     0.158558   
C541     C      0.769590000000     0.602800000000     0.975370000000     0.0349011  
C542     C      0.728110000000     0.600090000000     0.512390000000     0.00570424 
C543     C      0.766380000000     0.635730000000     0.974340000000     0.0403376  
C544     C      0.726610000000     0.632860000000     0.513400000000     0.155996   
C545     C      0.762750000000     0.515350000000     0.853720000000     0.0369836  
C546     C      0.728040000000     0.971810000000     0.852210000000     0.00588166 
C547     C      0.763920000000     0.513200000000     0.886520000000     0.0443429  
C548     C      0.727070000000     0.971240000000     0.885250000000     0.160366   
C549     C      0.773260000000     0.982400000000     0.603780000000     0.0327323  
C550     C      0.726940000000     0.513280000000     0.602260000000     0.00210949 
C551     C      0.771510000000     0.981670000000     0.636710000000     0.0414849  
C552     C      0.726520000000     0.514730000000     0.635210000000     0.158816   
C553     C      0.015210000000     0.761840000000     0.855950000000     0.0367951  
C554     C      0.970570000000     0.728550000000     0.854730000000     0.000928934
C555     C      0.013250000000     0.763170000000     0.888750000000     0.0496832  
C556     C      0.970160000000     0.727650000000     0.887800000000     0.162505   
C557     C      0.475950000000     0.769220000000     0.638280000000     0.0368816  
C558     C      0.519670000000     0.734750000000     0.638130000000     0.0067689  
C559     C      0.477270000000     0.771020000000     0.605350000000     0.0437723  
C560     C      0.519420000000     0.734390000000     0.605150000000     0.16207    
C561     C      0.605510000000     0.485140000000     0.720630000000     0.0388685  
C562     C      0.605840000000     0.511480000000     0.769730000000     0.00409065 
C563     C      0.638400000000     0.483530000000     0.721300000000     0.0511184  
C564     C      0.638840000000     0.512250000000     0.769230000000     0.161415   
C565     C      0.855790000000     0.515860000000     0.727250000000     0.032933   
C566     C      0.854920000000     0.974650000000     0.764730000000    -0.000602301
C567     C      0.888660000000     0.514630000000     0.726700000000     0.04244    
C568     C      0.887870000000     0.975460000000     0.766540000000     0.158724   
C569     C      0.476930000000     0.856650000000     0.766180000000     0.0362939  
C570     C      0.519370000000     0.855320000000     0.730110000000     0.00123313 
C571     C      0.478760000000     0.889510000000     0.766950000000     0.0423935  
C572     C      0.519320000000     0.888280000000     0.728570000000     0.159962   
C573     C      0.508350000000     0.606660000000     0.768960000000     0.0346885  
C574     C      0.980720000000     0.605780000000     0.720580000000     0.0019408  
C575     C      0.509190000000     0.639520000000     0.767840000000     0.0442016  
C576     C      0.979170000000     0.638820000000     0.720740000000     0.158463   
H1       H      0.398150000000     0.220370000000     0.039930000000     0.0418361  
H2       H      0.340710000000     0.219420000000     0.040990000000     0.0462035  
H3       H      0.338380000000     0.273670000000     0.456260000000     0.0680755  
H4       H      0.148950000000     0.285110000000     0.963720000000     0.0446404  
H5       H      0.091390000000     0.289680000000     0.966030000000     0.0450516  
H6       H      0.087300000000     0.206250000000     0.021950000000     0.0849443  
H7       H      0.283600000000     0.337660000000     0.467680000000     0.0411627  
H8       H      0.287010000000     0.394820000000     0.468510000000     0.0481357  
H9       H      0.205320000000     0.398870000000     0.027160000000     0.0712632  
H10      H      0.281860000000     0.149100000000     0.458950000000     0.04214    
H11      H      0.286820000000     0.091510000000     0.460190000000     0.0416492  
H12      H      0.211960000000     0.086540000000     0.026950000000     0.0696387  
H13      H      0.278630000000     0.029830000000     0.399280000000     0.040217   
H14      H      0.277050000000     0.033160000000     0.342170000000     0.0466942  
H15      H      0.214020000000     0.454780000000     0.339210000000     0.0727222  
H16      H      0.289380000000     0.468630000000     0.149610000000     0.0400317  
H17      H      0.292020000000     0.469400000000     0.092210000000     0.0450503  
H18      H      0.208580000000     0.025540000000     0.089280000000     0.0722484  
H19      H      0.530380000000     0.277420000000     0.401370000000     0.0400292  
H20      H      0.533410000000     0.275550000000     0.344300000000     0.0459307  
H21      H      0.453040000000     0.215080000000     0.341830000000     0.0693582  
H22      H      0.960140000000     0.285650000000     0.093190000000     0.0411967  
H23      H      0.958290000000     0.283090000000     0.150560000000     0.0461054  
H24      H      0.037060000000     0.220530000000     0.150400000000     0.0751748  
H25      H      0.150520000000     0.972040000000     0.201880000000     0.0496261  
H26      H      0.093220000000     0.974350000000     0.200940000000     0.0606563  
H27      H      0.093630000000     0.022200000000     0.289520000000     0.070291   
H28      H      0.401180000000     0.030570000000     0.211050000000     0.0414501  
H29      H      0.343910000000     0.032330000000     0.211660000000     0.0451725  
H30      H      0.342110000000     0.458300000000     0.279710000000     0.0677004  
H31      H      0.962680000000     0.402210000000     0.282220000000     0.0570353  
H32      H      0.959780000000     0.344970000000     0.281160000000     0.048259   
H33      H      0.036110000000     0.342380000000     0.215690000000     0.0695667  
H34      H      0.021000000000     0.152060000000     0.286800000000     0.0422679  
H35      H      0.020000000000     0.094870000000     0.288470000000     0.0480911  
H36      H      0.469720000000     0.093050000000     0.201280000000     0.0685883  
H37      H      0.398150000000     0.220370000000     0.539930000000     0.0417712  
H38      H      0.340710000000     0.219420000000     0.540990000000     0.0461814  
H39      H      0.338380000000     0.273670000000     0.956260000000     0.0681202  
H40      H      0.148950000000     0.285110000000     0.463720000000     0.0450194  
H41      H      0.091390000000     0.289680000000     0.466030000000     0.0454844  
H42      H      0.087300000000     0.206250000000     0.521950000000     0.0846228  
H43      H      0.283600000000     0.337660000000     0.967680000000     0.0410398  
H44      H      0.287010000000     0.394820000000     0.968510000000     0.0478076  
H45      H      0.205320000000     0.398870000000     0.527170000000     0.0707842  
H46      H      0.281860000000     0.149100000000     0.958950000000     0.0419496  
H47      H      0.286820000000     0.091510000000     0.960190000000     0.0413102  
H48      H      0.211960000000     0.086540000000     0.526950000000     0.0693636  
H49      H      0.278630000000     0.029830000000     0.899280000000     0.0400618  
H50      H      0.277050000000     0.033160000000     0.842170000000     0.0466193  
H51      H      0.214020000000     0.454780000000     0.839210000000     0.0726889  
H52      H      0.289380000000     0.468630000000     0.649610000000     0.0397892  
H53      H      0.292020000000     0.469400000000     0.592210000000     0.0442306  
H54      H      0.208580000000     0.025540000000     0.589290000000     0.0716816  
H55      H      0.530380000000     0.277420000000     0.901370000000     0.039882   
H56      H      0.533410000000     0.275550000000     0.844300000000     0.0458508  
H57      H      0.453040000000     0.215080000000     0.841830000000     0.0693273  
H58      H      0.960140000000     0.285650000000     0.593190000000     0.0403987  
H59      H      0.958290000000     0.283090000000     0.650560000000     0.0458837  
H60      H      0.037060000000     0.220530000000     0.650400000000     0.0751216  
H61      H      0.150520000000     0.972040000000     0.701880000000     0.0494928  
H62      H      0.093220000000     0.974350000000     0.700940000000     0.0604702  
H63      H      0.093630000000     0.022200000000     0.789520000000     0.0701736  
H64      H      0.401180000000     0.030570000000     0.711050000000     0.0412713  
H65      H      0.343910000000     0.032330000000     0.711660000000     0.0450287  
H66      H      0.342110000000     0.458300000000     0.779710000000     0.0676629  
H67      H      0.962680000000     0.402210000000     0.782220000000     0.0569697  
H68      H      0.959780000000     0.344970000000     0.781160000000     0.0482109  
H69      H      0.036110000000     0.342380000000     0.715690000000     0.0694408  
H70      H      0.021000000000     0.152060000000     0.786800000000     0.0421823  
H71      H      0.020000000000     0.094870000000     0.788470000000     0.0479632  
H72      H      0.469720000000     0.093050000000     0.701280000000     0.0683976  
H73      H      0.398150000000     0.720370000000     0.039930000000     0.0417189  
H74      H      0.340710000000     0.719420000000     0.040990000000     0.0461055  
H75      H      0.338380000000     0.773670000000     0.456260000000     0.0680497  
H76      H      0.148950000000     0.785110000000     0.963720000000     0.0445992  
H77      H      0.091390000000     0.789680000000     0.966030000000     0.0449679  
H78      H      0.087300000000     0.706250000000     0.021950000000     0.0847926  
H79      H      0.283600000000     0.837660000000     0.467680000000     0.041119   
H80      H      0.287010000000     0.894820000000     0.468510000000     0.0479894  
H81      H      0.205320000000     0.898870000000     0.027160000000     0.0710506  
H82      H      0.281860000000     0.649100000000     0.458950000000     0.0419951  
H83      H      0.286820000000     0.591510000000     0.460190000000     0.0411411  
H84      H      0.211960000000     0.586530000000     0.026950000000     0.0691153  
H85      H      0.278630000000     0.529840000000     0.399280000000     0.0398577  
H86      H      0.277050000000     0.533160000000     0.342170000000     0.0465722  
H87      H      0.214020000000     0.954780000000     0.339210000000     0.0725914  
H88      H      0.289380000000     0.968630000000     0.149610000000     0.0397701  
H89      H      0.292020000000     0.969400000000     0.092210000000     0.0447213  
H90      H      0.208580000000     0.525540000000     0.089280000000     0.0719106  
H91      H      0.530380000000     0.777420000000     0.401370000000     0.0399548  
H92      H      0.533410000000     0.775550000000     0.344300000000     0.0459014  
H93      H      0.453040000000     0.715080000000     0.341830000000     0.0692737  
H94      H      0.960140000000     0.785650000000     0.093190000000     0.041127   
H95      H      0.958290000000     0.783090000000     0.150560000000     0.046061   
H96      H      0.037060000000     0.720530000000     0.150400000000     0.0751071  
H97      H      0.150520000000     0.472040000000     0.201880000000     0.0500279  
H98      H      0.093220000000     0.474350000000     0.200940000000     0.061018   
H99      H      0.093630000000     0.522200000000     0.289520000000     0.0698932  
H100     H      0.401180000000     0.530570000000     0.211050000000     0.041067   
H101     H      0.343910000000     0.532330000000     0.211660000000     0.0449455  
H102     H      0.342110000000     0.958300000000     0.279710000000     0.0676335  
H103     H      0.962680000000     0.902210000000     0.282220000000     0.0569568  
H104     H      0.959780000000     0.844970000000     0.281160000000     0.0482137  
H105     H      0.036110000000     0.842380000000     0.215690000000     0.0695338  
H106     H      0.021000000000     0.652060000000     0.286800000000     0.042123   
H107     H      0.020000000000     0.594870000000     0.288470000000     0.0475833  
H108     H      0.469720000000     0.593050000000     0.201280000000     0.0680783  
H109     H      0.398150000000     0.720370000000     0.539930000000     0.0416528  
H110     H      0.340710000000     0.719420000000     0.540990000000     0.0460823  
H111     H      0.338380000000     0.773670000000     0.956260000000     0.0680947  
H112     H      0.148950000000     0.785110000000     0.463720000000     0.0449777  
H113     H      0.091390000000     0.789680000000     0.466030000000     0.0454004  
H114     H      0.087300000000     0.706250000000     0.521950000000     0.0844689  
H115     H      0.283600000000     0.837660000000     0.967680000000     0.0409963  
H116     H      0.287010000000     0.894820000000     0.968510000000     0.0476618  
H117     H      0.205320000000     0.898870000000     0.527170000000     0.070573   
H118     H      0.281860000000     0.649100000000     0.958950000000     0.0418044  
H119     H      0.286820000000     0.591510000000     0.960190000000     0.0408011  
H120     H      0.211960000000     0.586530000000     0.526950000000     0.0688352  
H121     H      0.278630000000     0.529840000000     0.899280000000     0.0397018  
H122     H      0.277050000000     0.533160000000     0.842170000000     0.0464969  
H123     H      0.214020000000     0.954780000000     0.839210000000     0.072558   
H124     H      0.289380000000     0.968630000000     0.649610000000     0.0395273  
H125     H      0.292020000000     0.969400000000     0.592210000000     0.0439015  
H126     H      0.208580000000     0.525540000000     0.589290000000     0.0713406  
H127     H      0.530380000000     0.777420000000     0.901370000000     0.0398077  
H128     H      0.533410000000     0.775550000000     0.844300000000     0.0458215  
H129     H      0.453040000000     0.715080000000     0.841830000000     0.0692426  
H130     H      0.960140000000     0.785650000000     0.593190000000     0.0403281  
H131     H      0.958290000000     0.783090000000     0.650560000000     0.045839   
H132     H      0.037060000000     0.720530000000     0.650400000000     0.0750536  
H133     H      0.150520000000     0.472040000000     0.701880000000     0.0498958  
H134     H      0.093220000000     0.474350000000     0.700940000000     0.0608327  
H135     H      0.093630000000     0.522200000000     0.789520000000     0.069775   
H136     H      0.401180000000     0.530570000000     0.711050000000     0.0408859  
H137     H      0.343910000000     0.532330000000     0.711660000000     0.0447998  
H138     H      0.342110000000     0.958300000000     0.779710000000     0.0675964  
H139     H      0.962680000000     0.902210000000     0.782220000000     0.0568914  
H140     H      0.959780000000     0.844970000000     0.781160000000     0.0481657  
H141     H      0.036110000000     0.842380000000     0.715690000000     0.0694079  
H142     H      0.021000000000     0.652060000000     0.786800000000     0.042037   
H143     H      0.020000000000     0.594870000000     0.788470000000     0.0474543  
H144     H      0.469720000000     0.593050000000     0.701280000000     0.0678853  
H145     H      0.898150000000     0.220370000000     0.039930000000     0.0417082  
H146     H      0.840710000000     0.219420000000     0.040990000000     0.0461598  
H147     H      0.838380000000     0.273670000000     0.456260000000     0.0680602  
H148     H      0.648950000000     0.285110000000     0.963720000000     0.044504   
H149     H      0.591380000000     0.289680000000     0.966030000000     0.0445375  
H150     H      0.587300000000     0.206250000000     0.021950000000     0.084532   
H151     H      0.783600000000     0.337660000000     0.467680000000     0.0411313  
H152     H      0.787010000000     0.394820000000     0.468510000000     0.0480705  
H153     H      0.705330000000     0.398870000000     0.027160000000     0.0711391  
H154     H      0.781860000000     0.149100000000     0.458950000000     0.0420992  
H155     H      0.786820000000     0.091510000000     0.460190000000     0.0415752  
H156     H      0.711960000000     0.086540000000     0.026950000000     0.0695321  
H157     H      0.778630000000     0.029830000000     0.399280000000     0.0401696  
H158     H      0.777040000000     0.033160000000     0.342170000000     0.0466488  
H159     H      0.714020000000     0.454780000000     0.339210000000     0.0726473  
H160     H      0.789380000000     0.468630000000     0.149610000000     0.0399853  
H161     H      0.792020000000     0.469400000000     0.092210000000     0.0449683  
H162     H      0.708590000000     0.025540000000     0.089280000000     0.0721419  
H163     H      0.030380000000     0.277420000000     0.401370000000     0.0403794  
H164     H      0.033410000000     0.275550000000     0.344300000000     0.046048   
H165     H      0.953040000000     0.215080000000     0.341830000000     0.0692808  
H166     H      0.460140000000     0.285650000000     0.093190000000     0.0414067  
H167     H      0.458290000000     0.283090000000     0.150560000000     0.0462132  
H168     H      0.537060000000     0.220530000000     0.150400000000     0.0751822  
H169     H      0.650520000000     0.972040000000     0.201880000000     0.0495256  
H170     H      0.593220000000     0.974350000000     0.200940000000     0.060244   
H171     H      0.593640000000     0.022200000000     0.289520000000     0.0697998  
H172     H      0.901180000000     0.030570000000     0.211050000000     0.0413361  
H173     H      0.843910000000     0.032330000000     0.211660000000     0.0451245  
H174     H      0.842110000000     0.458300000000     0.279710000000     0.0676744  
H175     H      0.462680000000     0.402210000000     0.282220000000     0.0571948  
H176     H      0.459780000000     0.344970000000     0.281160000000     0.0483905  
H177     H      0.536110000000     0.342380000000     0.215690000000     0.0695764  
H178     H      0.521000000000     0.152060000000     0.286800000000     0.0418511  
H179     H      0.520000000000     0.094870000000     0.288470000000     0.0475286  
H180     H      0.969720000000     0.093050000000     0.201280000000     0.0683372  
H181     H      0.898150000000     0.220370000000     0.539930000000     0.0416425  
H182     H      0.840710000000     0.219420000000     0.540990000000     0.0461376  
H183     H      0.838380000000     0.273670000000     0.956260000000     0.068105   
H184     H      0.648950000000     0.285110000000     0.463720000000     0.0448837  
H185     H      0.591380000000     0.289680000000     0.466030000000     0.0449726  
H186     H      0.587300000000     0.206250000000     0.521950000000     0.0842075  
H187     H      0.783600000000     0.337660000000     0.967680000000     0.0410088  
H188     H      0.787010000000     0.394820000000     0.968510000000     0.0477427  
H189     H      0.705330000000     0.398870000000     0.527170000000     0.0706583  
H190     H      0.781860000000     0.149100000000     0.958950000000     0.0419091  
H191     H      0.786820000000     0.091510000000     0.960190000000     0.0412363  
H192     H      0.711960000000     0.086540000000     0.526950000000     0.0692552  
H193     H      0.778630000000     0.029830000000     0.899280000000     0.0400145  
H194     H      0.777040000000     0.033160000000     0.842170000000     0.0465739  
H195     H      0.714020000000     0.454780000000     0.839210000000     0.0726137  
H196     H      0.789380000000     0.468630000000     0.649610000000     0.0397424  
H197     H      0.792020000000     0.469400000000     0.592210000000     0.0441471  
H198     H      0.708590000000     0.025540000000     0.589290000000     0.0715729  
H199     H      0.030380000000     0.277420000000     0.901370000000     0.0402333  
H200     H      0.033410000000     0.275550000000     0.844300000000     0.0459685  
H201     H      0.953040000000     0.215080000000     0.841830000000     0.0692499  
H202     H      0.460140000000     0.285650000000     0.593190000000     0.0406095  
H203     H      0.458290000000     0.283090000000     0.650560000000     0.0459917  
H204     H      0.537060000000     0.220530000000     0.650400000000     0.0751289  
H205     H      0.650520000000     0.972040000000     0.701880000000     0.0493913  
H206     H      0.593220000000     0.974350000000     0.700940000000     0.0600556  
H207     H      0.593640000000     0.022200000000     0.789520000000     0.0696808  
H208     H      0.901180000000     0.030570000000     0.711050000000     0.0411569  
H209     H      0.843910000000     0.032330000000     0.711660000000     0.0449804  
H210     H      0.842110000000     0.458300000000     0.779710000000     0.067637   
H211     H      0.462680000000     0.402210000000     0.782220000000     0.057129   
H212     H      0.459780000000     0.344970000000     0.781160000000     0.0483422  
H213     H      0.536110000000     0.342380000000     0.715690000000     0.0694494  
H214     H      0.521000000000     0.152060000000     0.786800000000     0.0417645  
H215     H      0.520000000000     0.094870000000     0.788470000000     0.0473992  
H216     H      0.969720000000     0.093050000000     0.701280000000     0.0681458  
H217     H      0.898150000000     0.720370000000     0.039930000000     0.0415906  
H218     H      0.840710000000     0.719420000000     0.040990000000     0.0460616  
H219     H      0.838380000000     0.773670000000     0.456260000000     0.0680344  
H220     H      0.648950000000     0.785110000000     0.963720000000     0.0444624  
H221     H      0.591380000000     0.789680000000     0.966030000000     0.0444527  
H222     H      0.587300000000     0.706250000000     0.021950000000     0.0843784  
H223     H      0.783600000000     0.837660000000     0.467680000000     0.0410877  
H224     H      0.787010000000     0.894820000000     0.468510000000     0.0479244  
H225     H      0.705330000000     0.898870000000     0.027160000000     0.0709258  
H226     H      0.781860000000     0.649100000000     0.458950000000     0.041954   
H227     H      0.786820000000     0.591510000000     0.460190000000     0.0410659  
H228     H      0.711960000000     0.586530000000     0.026950000000     0.0690066  
H229     H      0.778630000000     0.529840000000     0.399280000000     0.0398099  
H230     H      0.777040000000     0.533160000000     0.342170000000     0.0465276  
H231     H      0.714020000000     0.954780000000     0.339210000000     0.0725157  
H232     H      0.789380000000     0.968630000000     0.149610000000     0.0397239  
H233     H      0.792020000000     0.969400000000     0.092210000000     0.0446394  
H234     H      0.708590000000     0.525540000000     0.089280000000     0.0718027  
H235     H      0.030380000000     0.777420000000     0.401370000000     0.0403054  
H236     H      0.033410000000     0.775550000000     0.344300000000     0.0460185  
H237     H      0.953040000000     0.715080000000     0.341830000000     0.0691957  
H238     H      0.460140000000     0.785650000000     0.093190000000     0.0413368  
H239     H      0.458290000000     0.783090000000     0.150560000000     0.0461685  
H240     H      0.537060000000     0.720530000000     0.150400000000     0.0751136  
H241     H      0.650520000000     0.472040000000     0.201880000000     0.0499282  
H242     H      0.593220000000     0.474350000000     0.200940000000     0.0606069  
H243     H      0.593640000000     0.522200000000     0.289520000000     0.069399   
H244     H      0.901180000000     0.530570000000     0.211050000000     0.0409523  
H245     H      0.843910000000     0.532330000000     0.211660000000     0.0448971  
H246     H      0.842110000000     0.958300000000     0.279710000000     0.0676075  
H247     H      0.462680000000     0.902210000000     0.282220000000     0.057116   
H248     H      0.459780000000     0.844970000000     0.281160000000     0.0483453  
H249     H      0.536110000000     0.842380000000     0.215690000000     0.0695433  
H250     H      0.521000000000     0.652060000000     0.286800000000     0.041704   
H251     H      0.520000000000     0.594870000000     0.288470000000     0.0470163  
H252     H      0.969720000000     0.593050000000     0.201280000000     0.0678264  
H253     H      0.898150000000     0.720370000000     0.539930000000     0.0415238  
H254     H      0.840710000000     0.719420000000     0.540990000000     0.0460383  
H255     H      0.838380000000     0.773670000000     0.956260000000     0.0680795  
H256     H      0.648950000000     0.785110000000     0.463720000000     0.0448417  
H257     H      0.591380000000     0.789680000000     0.466030000000     0.0448874  
H258     H      0.587300000000     0.706250000000     0.521950000000     0.0840517  
H259     H      0.783600000000     0.837660000000     0.967680000000     0.0409654  
H260     H      0.787010000000     0.894820000000     0.968510000000     0.047597   
H261     H      0.705330000000     0.898870000000     0.527170000000     0.0704466  
H262     H      0.781860000000     0.649100000000     0.958950000000     0.0417637  
H263     H      0.786820000000     0.591510000000     0.960190000000     0.0407261  
H264     H      0.711960000000     0.586530000000     0.526950000000     0.0687246  
H265     H      0.778630000000     0.529840000000     0.899280000000     0.0396541  
H266     H      0.777040000000     0.533160000000     0.842170000000     0.0464523  
H267     H      0.714020000000     0.954780000000     0.839210000000     0.0724821  
H268     H      0.789380000000     0.968630000000     0.649610000000     0.0394807  
H269     H      0.792020000000     0.969400000000     0.592210000000     0.0438182  
H270     H      0.708590000000     0.525540000000     0.589290000000     0.0712305  
H271     H      0.030380000000     0.777420000000     0.901370000000     0.0401594  
H272     H      0.033410000000     0.775550000000     0.844300000000     0.0459391  
H273     H      0.953040000000     0.715080000000     0.841830000000     0.0691646  
H274     H      0.460140000000     0.785650000000     0.593190000000     0.0405386  
H275     H      0.458290000000     0.783090000000     0.650560000000     0.0459468  
H276     H      0.537060000000     0.720530000000     0.650400000000     0.07506    
H277     H      0.650520000000     0.472040000000     0.701880000000     0.0497952  
H278     H      0.593220000000     0.474350000000     0.700940000000     0.0604192  
H279     H      0.593640000000     0.522200000000     0.789520000000     0.0692792  
H280     H      0.901180000000     0.530570000000     0.711050000000     0.0407709  
H281     H      0.843910000000     0.532330000000     0.711660000000     0.0447511  
H282     H      0.842110000000     0.958300000000     0.779710000000     0.0675704  
H283     H      0.462680000000     0.902210000000     0.782220000000     0.0570504  
H284     H      0.459780000000     0.844970000000     0.781160000000     0.048297   
H285     H      0.536110000000     0.842380000000     0.715690000000     0.0694163  
H286     H      0.521000000000     0.652060000000     0.786800000000     0.0416169  
H287     H      0.520000000000     0.594870000000     0.788470000000     0.0468857  
H288     H      0.969720000000     0.593050000000     0.701280000000     0.0676327  
N1       N      0.335550000000     0.246320000000     0.998580000000    -0.173699   
N2       N      0.401000000000     0.249440000000     0.998740000000    -0.196549   
N3       N      0.085410000000     0.248290000000     0.994280000000    -0.173206   
N4       N      0.150800000000     0.244390000000     0.993480000000    -0.194591   
N5       N      0.246350000000     0.400870000000     0.497870000000    -0.170359   
N6       N      0.243820000000     0.335430000000     0.498700000000    -0.195286   
N7       N      0.249530000000     0.085300000000     0.493540000000    -0.172574   
N8       N      0.245190000000     0.150660000000     0.493660000000    -0.192498   
N9       N      0.245430000000     0.994160000000     0.336680000000    -0.171121   
N10      N      0.245620000000     0.491710000000     0.402170000000    -0.194938   
N11      N      0.250390000000     0.997380000000     0.086730000000    -0.173496   
N12      N      0.248570000000     0.998250000000     0.152260000000    -0.196683   
N13      N      0.993400000000     0.245180000000     0.339050000000    -0.172517   
N14      N      0.991270000000     0.245630000000     0.404580000000    -0.196713   
N15      N      0.997360000000     0.251300000000     0.154490000000    -0.171255   
N16      N      0.998120000000     0.252700000000     0.088920000000    -0.196502   
N17      N      0.089360000000     0.498530000000     0.245170000000    -0.169014   
N18      N      0.154900000000     0.497810000000     0.245050000000    -0.193559   
N19      N      0.339120000000     0.495360000000     0.245720000000    -0.17204    
N20      N      0.404580000000     0.995110000000     0.246870000000    -0.197941   
N21      N      0.497650000000     0.339740000000     0.248200000000    -0.171755   
N22      N      0.499080000000     0.405190000000     0.247390000000    -0.194119   
N23      N      0.494740000000     0.089910000000     0.244980000000    -0.170873   
N24      N      0.493980000000     0.155460000000     0.244270000000    -0.194768   
N25      N      0.335550000000     0.246320000000     0.498580000000    -0.171431   
N26      N      0.401000000000     0.249440000000     0.498730000000    -0.194494   
N27      N      0.085410000000     0.248290000000     0.494280000000    -0.16984    
N28      N      0.150800000000     0.244390000000     0.493480000000    -0.192429   
N29      N      0.246350000000     0.400870000000     0.997870000000    -0.173757   
N30      N      0.243820000000     0.335430000000     0.998700000000    -0.197418   
N31      N      0.249530000000     0.085300000000     0.993540000000    -0.176006   
N32      N      0.245190000000     0.150660000000     0.993660000000    -0.194608   
N33      N      0.245430000000     0.994160000000     0.836680000000    -0.171128   
N34      N      0.245620000000     0.491710000000     0.902170000000    -0.194901   
N35      N      0.250390000000     0.997380000000     0.586720000000    -0.174053   
N36      N      0.248570000000     0.998250000000     0.652260000000    -0.196714   
N37      N      0.993400000000     0.245180000000     0.839050000000    -0.172529   
N38      N      0.991270000000     0.245630000000     0.904580000000    -0.196646   
N39      N      0.997360000000     0.251300000000     0.654490000000    -0.171274   
N40      N      0.998120000000     0.252700000000     0.588920000000    -0.197017   
N41      N      0.089360000000     0.498530000000     0.745170000000    -0.169039   
N42      N      0.154900000000     0.497810000000     0.745050000000    -0.193565   
N43      N      0.339120000000     0.495360000000     0.745720000000    -0.172055   
N44      N      0.404580000000     0.995110000000     0.746870000000    -0.197982   
N45      N      0.497650000000     0.339740000000     0.748200000000    -0.171788   
N46      N      0.499080000000     0.405190000000     0.747390000000    -0.194147   
N47      N      0.494740000000     0.089910000000     0.744980000000    -0.170901   
N48      N      0.493980000000     0.155460000000     0.744270000000    -0.194776   
N49      N      0.335550000000     0.746320000000     0.998580000000    -0.173714   
N50      N      0.401000000000     0.749440000000     0.998740000000    -0.196575   
N51      N      0.085410000000     0.748290000000     0.994280000000    -0.173263   
N52      N      0.150800000000     0.744390000000     0.993480000000    -0.194585   
N53      N      0.246350000000     0.900870000000     0.497870000000    -0.170337   
N54      N      0.243820000000     0.835430000000     0.498700000000    -0.19529    
N55      N      0.249530000000     0.585300000000     0.493540000000    -0.172865   
N56      N      0.245190000000     0.650660000000     0.493660000000    -0.192515   
N57      N      0.245430000000     0.494150000000     0.336680000000    -0.169445   
N58      N      0.245620000000     0.991710000000     0.402170000000    -0.19744    
N59      N      0.250390000000     0.497390000000     0.086730000000    -0.17095    
N60      N      0.248570000000     0.498260000000     0.152260000000    -0.195154   
N61      N      0.993400000000     0.745180000000     0.339050000000    -0.172509   
N62      N      0.991270000000     0.745630000000     0.404580000000    -0.19675    
N63      N      0.997360000000     0.751300000000     0.154490000000    -0.171265   
N64      N      0.998120000000     0.752700000000     0.088920000000    -0.196529   
N65      N      0.089360000000     0.998530000000     0.245170000000    -0.171557   
N66      N      0.154900000000     0.997810000000     0.245050000000    -0.19516    
N67      N      0.339120000000     0.995360000000     0.245720000000    -0.173653   
N68      N      0.404580000000     0.495110000000     0.246870000000    -0.195436   
N69      N      0.497650000000     0.839740000000     0.248200000000    -0.171764   
N70      N      0.499080000000     0.905190000000     0.247390000000    -0.194168   
N71      N      0.494740000000     0.589910000000     0.244980000000    -0.171226   
N72      N      0.493980000000     0.655460000000     0.244270000000    -0.194788   
N73      N      0.335550000000     0.746320000000     0.498580000000    -0.171443   
N74      N      0.401000000000     0.749440000000     0.498730000000    -0.194518   
N75      N      0.085410000000     0.748290000000     0.494280000000    -0.169889   
N76      N      0.150800000000     0.744390000000     0.493480000000    -0.192419   
N77      N      0.246350000000     0.900870000000     0.997870000000    -0.173737   
N78      N      0.243820000000     0.835430000000     0.998700000000    -0.197423   
N79      N      0.249530000000     0.585300000000     0.993540000000    -0.176309   
N80      N      0.245190000000     0.650660000000     0.993660000000    -0.194631   
N81      N      0.245430000000     0.494150000000     0.836680000000    -0.169452   
N82      N      0.245620000000     0.991710000000     0.902170000000    -0.197404   
N83      N      0.250390000000     0.497390000000     0.586720000000    -0.171498   
N84      N      0.248570000000     0.498260000000     0.652260000000    -0.195179   
N85      N      0.993400000000     0.745180000000     0.839050000000    -0.172521   
N86      N      0.991270000000     0.745630000000     0.904580000000    -0.196683   
N87      N      0.997360000000     0.751300000000     0.654490000000    -0.171285   
N88      N      0.998120000000     0.752700000000     0.588920000000    -0.197045   
N89      N      0.089360000000     0.998530000000     0.745170000000    -0.171586   
N90      N      0.154900000000     0.997810000000     0.745050000000    -0.195169   
N91      N      0.339120000000     0.995360000000     0.745720000000    -0.173672   
N92      N      0.404580000000     0.495110000000     0.746870000000    -0.195471   
N93      N      0.497650000000     0.839740000000     0.748200000000    -0.171797   
N94      N      0.499080000000     0.905190000000     0.747390000000    -0.194195   
N95      N      0.494740000000     0.589910000000     0.744980000000    -0.171255   
N96      N      0.493980000000     0.655460000000     0.744270000000    -0.194796   
N97      N      0.835550000000     0.246320000000     0.998580000000    -0.173703   
N98      N      0.901000000000     0.249440000000     0.998740000000    -0.196518   
N99      N      0.585420000000     0.248290000000     0.994280000000    -0.17349    
N100     N      0.650800000000     0.244390000000     0.993480000000    -0.194616   
N101     N      0.746350000000     0.400870000000     0.497870000000    -0.170372   
N102     N      0.743820000000     0.335430000000     0.498700000000    -0.195295   
N103     N      0.749530000000     0.085300000000     0.493540000000    -0.172597   
N104     N      0.745190000000     0.150660000000     0.493660000000    -0.192507   
N105     N      0.745430000000     0.994160000000     0.336680000000    -0.171133   
N106     N      0.745620000000     0.491710000000     0.402170000000    -0.194941   
N107     N      0.750390000000     0.997380000000     0.086730000000    -0.173514   
N108     N      0.748570000000     0.998250000000     0.152260000000    -0.196697   
N109     N      0.493390000000     0.245180000000     0.339050000000    -0.170879   
N110     N      0.491270000000     0.245630000000     0.404580000000    -0.194274   
N111     N      0.497360000000     0.251300000000     0.154490000000    -0.169612   
N112     N      0.498120000000     0.252700000000     0.088920000000    -0.194074   
N113     N      0.589360000000     0.498530000000     0.245170000000    -0.169354   
N114     N      0.654900000000     0.497810000000     0.245050000000    -0.193562   
N115     N      0.839120000000     0.495360000000     0.245720000000    -0.172048   
N116     N      0.904580000000     0.995110000000     0.246870000000    -0.197916   
N117     N      0.997650000000     0.339740000000     0.248200000000    -0.173413   
N118     N      0.999080000000     0.405190000000     0.247390000000    -0.196529   
N119     N      0.994730000000     0.089910000000     0.244980000000    -0.173332   
N120     N      0.993980000000     0.155460000000     0.244270000000    -0.196341   
N121     N      0.835550000000     0.246320000000     0.498580000000    -0.171434   
N122     N      0.901000000000     0.249440000000     0.498730000000    -0.194462   
N123     N      0.585420000000     0.248290000000     0.494280000000    -0.170107   
N124     N      0.650800000000     0.244390000000     0.493480000000    -0.192446   
N125     N      0.746350000000     0.400870000000     0.997870000000    -0.173778   
N126     N      0.743820000000     0.335430000000     0.998700000000    -0.197432   
N127     N      0.749530000000     0.085300000000     0.993540000000    -0.176036   
N128     N      0.745190000000     0.150660000000     0.993660000000    -0.194621   
N129     N      0.745430000000     0.994160000000     0.836680000000    -0.17114    
N130     N      0.745620000000     0.491710000000     0.902170000000    -0.194904   
N131     N      0.750390000000     0.997380000000     0.586720000000    -0.174073   
N132     N      0.748570000000     0.998250000000     0.652260000000    -0.196728   
N133     N      0.493390000000     0.245180000000     0.839050000000    -0.170889   
N134     N      0.491270000000     0.245630000000     0.904580000000    -0.194204   
N135     N      0.497360000000     0.251300000000     0.654490000000    -0.169624   
N136     N      0.498120000000     0.252700000000     0.588920000000    -0.194578   
N137     N      0.589360000000     0.498530000000     0.745170000000    -0.169381   
N138     N      0.654900000000     0.497810000000     0.745050000000    -0.193569   
N139     N      0.839120000000     0.495360000000     0.745720000000    -0.172063   
N140     N      0.904580000000     0.995110000000     0.746870000000    -0.197956   
N141     N      0.997650000000     0.339740000000     0.748200000000    -0.173451   
N142     N      0.999080000000     0.405190000000     0.747390000000    -0.196563   
N143     N      0.994730000000     0.089910000000     0.744980000000    -0.173366   
N144     N      0.993980000000     0.155460000000     0.744270000000    -0.196354   
N145     N      0.835550000000     0.746320000000     0.998580000000    -0.173718   
N146     N      0.901000000000     0.749440000000     0.998740000000    -0.196544   
N147     N      0.585420000000     0.748290000000     0.994280000000    -0.173548   
N148     N      0.650800000000     0.744390000000     0.993480000000    -0.19461    
N149     N      0.746350000000     0.900870000000     0.497870000000    -0.170351   
N150     N      0.743820000000     0.835430000000     0.498700000000    -0.1953     
N151     N      0.749530000000     0.585300000000     0.493540000000    -0.172889   
N152     N      0.745190000000     0.650660000000     0.493660000000    -0.192523   
N153     N      0.745430000000     0.494150000000     0.336680000000    -0.169454   
N154     N      0.745620000000     0.991710000000     0.402170000000    -0.197447   
N155     N      0.750390000000     0.497390000000     0.086730000000    -0.170963   
N156     N      0.748570000000     0.498260000000     0.152260000000    -0.195164   
N157     N      0.493390000000     0.745180000000     0.339050000000    -0.170869   
N158     N      0.491270000000     0.745630000000     0.404580000000    -0.194305   
N159     N      0.497360000000     0.751300000000     0.154490000000    -0.169619   
N160     N      0.498120000000     0.752700000000     0.088920000000    -0.194096   
N161     N      0.589360000000     0.998530000000     0.245170000000    -0.171908   
N162     N      0.654900000000     0.997810000000     0.245050000000    -0.195169   
N163     N      0.839120000000     0.995360000000     0.245720000000    -0.173662   
N164     N      0.904580000000     0.495110000000     0.246870000000    -0.19541    
N165     N      0.997650000000     0.839740000000     0.248200000000    -0.173422   
N166     N      0.999080000000     0.905190000000     0.247390000000    -0.196578   
N167     N      0.994730000000     0.589910000000     0.244980000000    -0.173696   
N168     N      0.993980000000     0.655460000000     0.244270000000    -0.196367   
N169     N      0.835550000000     0.746320000000     0.498580000000    -0.171445   
N170     N      0.901000000000     0.749440000000     0.498730000000    -0.194486   
N171     N      0.585420000000     0.748290000000     0.494280000000    -0.170157   
N172     N      0.650800000000     0.744390000000     0.493480000000    -0.192436   
N173     N      0.746350000000     0.900870000000     0.997870000000    -0.173758   
N174     N      0.743820000000     0.835430000000     0.998700000000    -0.197437   
N175     N      0.749530000000     0.585300000000     0.993540000000    -0.17634    
N176     N      0.745190000000     0.650660000000     0.993660000000    -0.194644   
N177     N      0.745430000000     0.494150000000     0.836680000000    -0.16946    
N178     N      0.745620000000     0.991710000000     0.902170000000    -0.197411   
N179     N      0.750390000000     0.497390000000     0.586720000000    -0.171512   
N180     N      0.748570000000     0.498260000000     0.652260000000    -0.195189   
N181     N      0.493390000000     0.745180000000     0.839050000000    -0.170879   
N182     N      0.491270000000     0.745630000000     0.904580000000    -0.194235   
N183     N      0.497360000000     0.751300000000     0.654490000000    -0.169631   
N184     N      0.498120000000     0.752700000000     0.588920000000    -0.1946     
N185     N      0.589360000000     0.998530000000     0.745170000000    -0.171939   
N186     N      0.654900000000     0.997810000000     0.745050000000    -0.195179   
N187     N      0.839120000000     0.995360000000     0.745720000000    -0.173681   
N188     N      0.904580000000     0.495110000000     0.746870000000    -0.195445   
N189     N      0.997650000000     0.839740000000     0.748200000000    -0.173461   
N190     N      0.999080000000     0.905190000000     0.747390000000    -0.196613   
N191     N      0.994730000000     0.589910000000     0.744980000000    -0.173731   
N192     N      0.993980000000     0.655460000000     0.744270000000    -0.19638    
Ni1      Ni     0.496610000000     0.997090000000     0.217970000000     1.01754    
Ni2      Ni     0.497120000000     0.497780000000     0.274240000000     1.02208    
Ni3      Ni     0.467560000000     0.248170000000     0.246200000000     1.00663    
Ni4      Ni     0.023320000000     0.246980000000     0.247290000000     1.02063    
Ni5      Ni     0.247420000000     0.024340000000     0.245030000000     1.02431    
Ni6      Ni     0.246550000000     0.468560000000     0.243790000000     1.00924    
Ni7      Ni     0.220380000000     0.493670000000     0.495500000000     1.0392     
Ni8      Ni     0.276490000000     0.992730000000     0.493250000000     0.99614    
Ni9      Ni     0.993420000000     0.277460000000     0.995290000000     1.00226    
Ni10     Ni     0.492960000000     0.221380000000     0.998230000000     1.02323    
Ni11     Ni     0.244390000000     0.244440000000     0.467860000000     1.01145    
Ni12     Ni     0.242060000000     0.242050000000     0.024040000000     1.03344    
Ni13     Ni     0.496610000000     0.997090000000     0.717970000000     1.01713    
Ni14     Ni     0.497120000000     0.497780000000     0.774240000000     1.02197    
Ni15     Ni     0.467560000000     0.248170000000     0.746200000000     1.0066     
Ni16     Ni     0.023320000000     0.246980000000     0.747290000000     1.02064    
Ni17     Ni     0.247420000000     0.024340000000     0.745030000000     1.02432    
Ni18     Ni     0.246550000000     0.468560000000     0.743790000000     1.00921    
Ni19     Ni     0.220380000000     0.493670000000     0.995500000000     1.03236    
Ni20     Ni     0.276490000000     0.992730000000     0.993250000000     0.99015    
Ni21     Ni     0.993420000000     0.277460000000     0.495290000000     1.00809    
Ni22     Ni     0.492960000000     0.221380000000     0.498230000000     1.03689    
Ni23     Ni     0.244390000000     0.244440000000     0.967860000000     1.00341    
Ni24     Ni     0.242060000000     0.242050000000     0.524040000000     1.02964    
Ni25     Ni     0.496610000000     0.497090000000     0.217970000000     1.0223     
Ni26     Ni     0.497120000000     0.997780000000     0.274240000000     1.01702    
Ni27     Ni     0.467560000000     0.748170000000     0.246200000000     1.00662    
Ni28     Ni     0.023320000000     0.746980000000     0.247290000000     1.02062    
Ni29     Ni     0.247420000000     0.524340000000     0.245030000000     1.02137    
Ni30     Ni     0.246550000000     0.968560000000     0.243790000000     1.00314    
Ni31     Ni     0.220380000000     0.993670000000     0.495500000000     1.0343     
Ni32     Ni     0.276490000000     0.492730000000     0.493250000000     1.00086    
Ni33     Ni     0.993420000000     0.777460000000     0.995290000000     1.00218    
Ni34     Ni     0.492960000000     0.721380000000     0.998230000000     1.0229     
Ni35     Ni     0.244390000000     0.744450000000     0.467860000000     1.01146    
Ni36     Ni     0.242060000000     0.742050000000     0.024040000000     1.03343    
Ni37     Ni     0.496610000000     0.497090000000     0.717970000000     1.0219     
Ni38     Ni     0.497120000000     0.997780000000     0.774240000000     1.0169     
Ni39     Ni     0.467560000000     0.748170000000     0.746200000000     1.00659    
Ni40     Ni     0.023320000000     0.746980000000     0.747290000000     1.02062    
Ni41     Ni     0.247420000000     0.524340000000     0.745030000000     1.02136    
Ni42     Ni     0.246550000000     0.968560000000     0.743790000000     1.00309    
Ni43     Ni     0.220380000000     0.993670000000     0.995500000000     1.02747    
Ni44     Ni     0.276490000000     0.492730000000     0.993250000000     0.994852   
Ni45     Ni     0.993420000000     0.777460000000     0.495290000000     1.00801    
Ni46     Ni     0.492960000000     0.721380000000     0.498230000000     1.03659    
Ni47     Ni     0.244390000000     0.744450000000     0.967860000000     1.0034     
Ni48     Ni     0.242060000000     0.742050000000     0.524040000000     1.02962    
Ni49     Ni     0.996610000000     0.997090000000     0.217970000000     1.01295    
Ni50     Ni     0.997110000000     0.497780000000     0.274240000000     1.01725    
Ni51     Ni     0.967560000000     0.248170000000     0.246200000000     1.00066    
Ni52     Ni     0.523320000000     0.246980000000     0.247290000000     1.01765    
Ni53     Ni     0.747420000000     0.024340000000     0.245030000000     1.02431    
Ni54     Ni     0.746550000000     0.468560000000     0.243790000000     1.00923    
Ni55     Ni     0.720380000000     0.493670000000     0.495500000000     1.03894    
Ni56     Ni     0.776490000000     0.992730000000     0.493250000000     0.99602    
Ni57     Ni     0.493420000000     0.277460000000     0.995290000000     1.00698    
Ni58     Ni     0.992960000000     0.221380000000     0.998230000000     1.01846    
Ni59     Ni     0.744390000000     0.244440000000     0.467860000000     1.01143    
Ni60     Ni     0.742060000000     0.242050000000     0.024040000000     1.03346    
Ni61     Ni     0.996610000000     0.997090000000     0.717970000000     1.01253    
Ni62     Ni     0.997110000000     0.497780000000     0.774240000000     1.01714    
Ni63     Ni     0.967560000000     0.248170000000     0.746200000000     1.00062    
Ni64     Ni     0.523320000000     0.246980000000     0.747290000000     1.01764    
Ni65     Ni     0.747420000000     0.024340000000     0.745030000000     1.02432    
Ni66     Ni     0.746550000000     0.468560000000     0.743790000000     1.0092     
Ni67     Ni     0.720380000000     0.493670000000     0.995500000000     1.03208    
Ni68     Ni     0.776490000000     0.992730000000     0.993250000000     0.990025   
Ni69     Ni     0.493420000000     0.277460000000     0.495290000000     1.01282    
Ni70     Ni     0.992960000000     0.221380000000     0.498230000000     1.03211    
Ni71     Ni     0.744390000000     0.244440000000     0.967860000000     1.00337    
Ni72     Ni     0.742060000000     0.242050000000     0.524040000000     1.02965    
Ni73     Ni     0.996610000000     0.497090000000     0.217970000000     1.0177     
Ni74     Ni     0.997110000000     0.997780000000     0.274240000000     1.0122     
Ni75     Ni     0.967560000000     0.748170000000     0.246200000000     1.00063    
Ni76     Ni     0.523320000000     0.746980000000     0.247290000000     1.01763    
Ni77     Ni     0.747420000000     0.524340000000     0.245030000000     1.02136    
Ni78     Ni     0.746550000000     0.968560000000     0.243790000000     1.00312    
Ni79     Ni     0.720380000000     0.993670000000     0.495500000000     1.03403    
Ni80     Ni     0.776490000000     0.492730000000     0.493250000000     1.00074    
Ni81     Ni     0.493420000000     0.777460000000     0.995290000000     1.00691    
Ni82     Ni     0.992960000000     0.721380000000     0.998230000000     1.01813    
Ni83     Ni     0.744390000000     0.744450000000     0.467860000000     1.01144    
Ni84     Ni     0.742060000000     0.742050000000     0.024040000000     1.03345    
Ni85     Ni     0.996610000000     0.497090000000     0.717970000000     1.01729    
Ni86     Ni     0.997110000000     0.997780000000     0.774240000000     1.01208    
Ni87     Ni     0.967560000000     0.748170000000     0.746200000000     1.00059    
Ni88     Ni     0.523320000000     0.746980000000     0.747290000000     1.01762    
Ni89     Ni     0.747420000000     0.524340000000     0.745030000000     1.02136    
Ni90     Ni     0.746550000000     0.968560000000     0.743790000000     1.00307    
Ni91     Ni     0.720380000000     0.993670000000     0.995500000000     1.02719    
Ni92     Ni     0.776490000000     0.492730000000     0.993250000000     0.994732   
Ni93     Ni     0.493420000000     0.777460000000     0.495290000000     1.01275    
Ni94     Ni     0.992960000000     0.721380000000     0.498230000000     1.0318     
Ni95     Ni     0.744390000000     0.744450000000     0.967860000000     1.00337    
Ni96     Ni     0.742060000000     0.742050000000     0.524040000000     1.02964    
O1       O      0.994970000000     0.042300000000     0.219240000000    -0.436396   
O2       O      0.498270000000     0.451960000000     0.220450000000    -0.427645   
O3       O      0.451470000000     0.996490000000     0.220300000000    -0.444834   
O4       O      0.041810000000     0.497650000000     0.219320000000    -0.429801   
O5       O      0.042280000000     0.999100000000     0.271860000000    -0.436498   
O6       O      0.451940000000     0.496270000000     0.272880000000    -0.42803    
O7       O      0.997530000000     0.452590000000     0.273030000000    -0.436578   
O8       O      0.496630000000     0.042950000000     0.271770000000    -0.438093   
O9       O      0.468540000000     0.242150000000     0.291070000000    -0.437512   
O10      O      0.470530000000     0.254220000000     0.201420000000    -0.43412    
O11      O      0.468840000000     0.203200000000     0.240250000000    -0.423508   
O12      O      0.470550000000     0.293040000000     0.252170000000    -0.437366   
O13      O      0.022400000000     0.291970000000     0.244020000000    -0.437142   
O14      O      0.020340000000     0.202020000000     0.250380000000    -0.437514   
O15      O      0.022020000000     0.244080000000     0.202140000000    -0.432263   
O16      O      0.020400000000     0.250100000000     0.292370000000    -0.437007   
O17      O      0.292330000000     0.021790000000     0.240980000000    -0.438021   
O18      O      0.202440000000     0.022930000000     0.249040000000    -0.416997   
O19      O      0.251220000000     0.021130000000     0.290070000000    -0.430301   
O20      O      0.243600000000     0.023310000000     0.199920000000    -0.42128    
O21      O      0.251950000000     0.471480000000     0.198960000000    -0.44152    
O22      O      0.241260000000     0.469610000000     0.288680000000    -0.437956   
O23      O      0.201590000000     0.471450000000     0.238680000000    -0.436241   
O24      O      0.291520000000     0.469930000000     0.249150000000    -0.438841   
O25      O      0.221390000000     0.448730000000     0.999440000000    -0.438393   
O26      O      0.223160000000     0.038500000000     0.492660000000    -0.439761   
O27      O      0.220870000000     0.489830000000     0.450260000000    -0.426631   
O28      O      0.223520000000     0.997620000000     0.040090000000    -0.441714   
O29      O      0.275740000000     0.492180000000     0.038870000000    -0.432543   
O30      O      0.273240000000     0.993610000000     0.448320000000    -0.444635   
O31      O      0.275750000000     0.038060000000     0.992890000000    -0.435389   
O32      O      0.273450000000     0.447490000000     0.492690000000    -0.439041   
O33      O      0.038690000000     0.275570000000     0.494890000000    -0.432906   
O34      O      0.448170000000     0.275530000000     0.994700000000    -0.425695   
O35      O      0.992910000000     0.277320000000     0.040880000000    -0.433457   
O36      O      0.494150000000     0.273630000000     0.450420000000    -0.437899   
O37      O      0.988780000000     0.221430000000     0.452970000000    -0.427221   
O38      O      0.497350000000     0.225010000000     0.042820000000    -0.425855   
O39      O      0.448060000000     0.223560000000     0.502390000000    -0.438623   
O40      O      0.037850000000     0.223000000000     0.994890000000    -0.43474    
O41      O      0.198810000000     0.245100000000     0.468310000000    -0.435546   
O42      O      0.289200000000     0.245200000000     0.471130000000    -0.443239   
O43      O      0.245250000000     0.198780000000     0.468410000000    -0.435458   
O44      O      0.244760000000     0.289320000000     0.471120000000    -0.44355    
O45      O      0.241220000000     0.287460000000     0.023570000000    -0.421486   
O46      O      0.242260000000     0.197110000000     0.020860000000    -0.420349   
O47      O      0.287560000000     0.242220000000     0.023590000000    -0.433857   
O48      O      0.197120000000     0.241420000000     0.020750000000    -0.412587   
O49      O      0.994970000000     0.042300000000     0.719240000000    -0.436511   
O50      O      0.498270000000     0.451960000000     0.720450000000    -0.427773   
O51      O      0.451470000000     0.996490000000     0.720300000000    -0.444988   
O52      O      0.041810000000     0.497650000000     0.719320000000    -0.429898   
O53      O      0.042280000000     0.999100000000     0.771860000000    -0.436569   
O54      O      0.451940000000     0.496270000000     0.772880000000    -0.428095   
O55      O      0.997530000000     0.452590000000     0.773030000000    -0.436648   
O56      O      0.496630000000     0.042950000000     0.771770000000    -0.438171   
O57      O      0.468540000000     0.242150000000     0.791070000000    -0.437514   
O58      O      0.470530000000     0.254220000000     0.701420000000    -0.43418    
O59      O      0.468840000000     0.203200000000     0.740250000000    -0.423518   
O60      O      0.470550000000     0.293040000000     0.752170000000    -0.437398   
O61      O      0.022400000000     0.291970000000     0.744020000000    -0.437159   
O62      O      0.020340000000     0.202020000000     0.750380000000    -0.437527   
O63      O      0.022020000000     0.244080000000     0.702140000000    -0.432284   
O64      O      0.020400000000     0.250100000000     0.792370000000    -0.437024   
O65      O      0.292330000000     0.021790000000     0.740980000000    -0.438048   
O66      O      0.202440000000     0.022930000000     0.749040000000    -0.416992   
O67      O      0.251220000000     0.021130000000     0.790070000000    -0.43031    
O68      O      0.243600000000     0.023310000000     0.699920000000    -0.421303   
O69      O      0.251950000000     0.471480000000     0.698960000000    -0.441602   
O70      O      0.241260000000     0.469610000000     0.788680000000    -0.437958   
O71      O      0.201590000000     0.471450000000     0.738680000000    -0.436271   
O72      O      0.291520000000     0.469930000000     0.749150000000    -0.438875   
O73      O      0.221390000000     0.448730000000     0.499440000000    -0.436976   
O74      O      0.223160000000     0.038500000000     0.992660000000    -0.440991   
O75      O      0.220870000000     0.489830000000     0.950260000000    -0.425709   
O76      O      0.223520000000     0.997620000000     0.540090000000    -0.446888   
O77      O      0.275740000000     0.492180000000     0.538870000000    -0.437827   
O78      O      0.273240000000     0.993610000000     0.948330000000    -0.443732   
O79      O      0.275750000000     0.038060000000     0.492890000000    -0.434706   
O80      O      0.273450000000     0.447490000000     0.992690000000    -0.439471   
O81      O      0.038690000000     0.275570000000     0.994890000000    -0.433416   
O82      O      0.448170000000     0.275530000000     0.494700000000    -0.427123   
O83      O      0.992910000000     0.277320000000     0.540880000000    -0.438686   
O84      O      0.494150000000     0.273630000000     0.950420000000    -0.436909   
O85      O      0.988780000000     0.221430000000     0.952970000000    -0.425864   
O86      O      0.497350000000     0.225010000000     0.542820000000    -0.431382   
O87      O      0.448060000000     0.223560000000     0.002390000000    -0.427317   
O88      O      0.037850000000     0.223000000000     0.494890000000    -0.43456    
O89      O      0.198810000000     0.245100000000     0.968310000000    -0.433648   
O90      O      0.289200000000     0.245200000000     0.971130000000    -0.441069   
O91      O      0.245250000000     0.198780000000     0.968410000000    -0.433548   
O92      O      0.244760000000     0.289320000000     0.971120000000    -0.441397   
O93      O      0.241220000000     0.287460000000     0.523570000000    -0.427368   
O94      O      0.242260000000     0.197110000000     0.520860000000    -0.426      
O95      O      0.287560000000     0.242220000000     0.523590000000    -0.43984    
O96      O      0.197120000000     0.241420000000     0.520750000000    -0.418144   
O97      O      0.994970000000     0.542300000000     0.219240000000    -0.44025    
O98      O      0.498270000000     0.951960000000     0.220450000000    -0.426848   
O99      O      0.451470000000     0.496490000000     0.220300000000    -0.443923   
O100     O      0.041810000000     0.997650000000     0.219320000000    -0.430196   
O101     O      0.042280000000     0.499100000000     0.271860000000    -0.435487   
O102     O      0.451940000000     0.996270000000     0.272880000000    -0.428426   
O103     O      0.997530000000     0.952590000000     0.273030000000    -0.435777   
O104     O      0.496630000000     0.542940000000     0.271770000000    -0.442045   
O105     O      0.468540000000     0.742150000000     0.291070000000    -0.437536   
O106     O      0.470530000000     0.754220000000     0.201420000000    -0.434132   
O107     O      0.468840000000     0.703200000000     0.240250000000    -0.423542   
O108     O      0.470550000000     0.793040000000     0.252170000000    -0.437373   
O109     O      0.022400000000     0.791970000000     0.244020000000    -0.437146   
O110     O      0.020340000000     0.702020000000     0.250380000000    -0.437553   
O111     O      0.022020000000     0.744080000000     0.202140000000    -0.432273   
O112     O      0.020400000000     0.750100000000     0.292370000000    -0.437021   
O113     O      0.292330000000     0.521790000000     0.240980000000    -0.442446   
O114     O      0.202440000000     0.522930000000     0.249040000000    -0.421213   
O115     O      0.251220000000     0.521130000000     0.290070000000    -0.434641   
O116     O      0.243600000000     0.523310000000     0.199920000000    -0.425628   
O117     O      0.251950000000     0.971470000000     0.198960000000    -0.439811   
O118     O      0.241260000000     0.969610000000     0.288680000000    -0.436437   
O119     O      0.201590000000     0.971450000000     0.238680000000    -0.434771   
O120     O      0.291520000000     0.969930000000     0.249150000000    -0.437289   
O121     O      0.221390000000     0.948730000000     0.999440000000    -0.437692   
O122     O      0.223160000000     0.538500000000     0.492660000000    -0.443755   
O123     O      0.220870000000     0.989830000000     0.450260000000    -0.426992   
O124     O      0.223520000000     0.497620000000     0.040090000000    -0.440638   
O125     O      0.275740000000     0.992180000000     0.038870000000    -0.432886   
O126     O      0.273240000000     0.493610000000     0.448320000000    -0.443682   
O127     O      0.275750000000     0.538060000000     0.992890000000    -0.439388   
O128     O      0.273450000000     0.947490000000     0.492690000000    -0.43834    
O129     O      0.038690000000     0.775570000000     0.494890000000    -0.432961   
O130     O      0.448170000000     0.775530000000     0.994700000000    -0.425742   
O131     O      0.992910000000     0.777320000000     0.040880000000    -0.433515   
O132     O      0.494150000000     0.773630000000     0.450420000000    -0.43795    
O133     O      0.988780000000     0.721430000000     0.452970000000    -0.427322   
O134     O      0.497350000000     0.725010000000     0.042820000000    -0.425923   
O135     O      0.448060000000     0.723560000000     0.502390000000    -0.438723   
O136     O      0.037850000000     0.723000000000     0.994890000000    -0.434825   
O137     O      0.198810000000     0.745100000000     0.468310000000    -0.435573   
O138     O      0.289200000000     0.745200000000     0.471130000000    -0.443268   
O139     O      0.245250000000     0.698780000000     0.468410000000    -0.435396   
O140     O      0.244760000000     0.789320000000     0.471120000000    -0.443685   
O141     O      0.241220000000     0.787460000000     0.023570000000    -0.42151    
O142     O      0.242260000000     0.697110000000     0.020860000000    -0.42034    
O143     O      0.287560000000     0.742220000000     0.023590000000    -0.433876   
O144     O      0.197120000000     0.741410000000     0.020750000000    -0.412551   
O145     O      0.994970000000     0.542300000000     0.719240000000    -0.440375   
O146     O      0.498270000000     0.951960000000     0.720450000000    -0.426974   
O147     O      0.451470000000     0.496490000000     0.720300000000    -0.444076   
O148     O      0.041810000000     0.997650000000     0.719320000000    -0.430294   
O149     O      0.042280000000     0.499100000000     0.771860000000    -0.435557   
O150     O      0.451940000000     0.996270000000     0.772880000000    -0.428492   
O151     O      0.997530000000     0.952590000000     0.773030000000    -0.435845   
O152     O      0.496630000000     0.542940000000     0.771770000000    -0.442129   
O153     O      0.468540000000     0.742150000000     0.791070000000    -0.437539   
O154     O      0.470530000000     0.754220000000     0.701420000000    -0.434192   
O155     O      0.468840000000     0.703200000000     0.740250000000    -0.423552   
O156     O      0.470550000000     0.793040000000     0.752170000000    -0.437405   
O157     O      0.022400000000     0.791970000000     0.744020000000    -0.437164   
O158     O      0.020340000000     0.702020000000     0.750380000000    -0.437566   
O159     O      0.022020000000     0.744080000000     0.702140000000    -0.432294   
O160     O      0.020400000000     0.750100000000     0.792370000000    -0.437037   
O161     O      0.292330000000     0.521790000000     0.740980000000    -0.442482   
O162     O      0.202440000000     0.522930000000     0.749040000000    -0.421216   
O163     O      0.251220000000     0.521130000000     0.790070000000    -0.434657   
O164     O      0.243600000000     0.523310000000     0.699920000000    -0.425664   
O165     O      0.251950000000     0.971470000000     0.698960000000    -0.439889   
O166     O      0.241260000000     0.969610000000     0.788680000000    -0.436437   
O167     O      0.201590000000     0.971450000000     0.738680000000    -0.434798   
O168     O      0.291520000000     0.969930000000     0.749150000000    -0.43732    
O169     O      0.221390000000     0.948730000000     0.499440000000    -0.436275   
O170     O      0.223160000000     0.538500000000     0.992660000000    -0.444987   
O171     O      0.220870000000     0.989830000000     0.950260000000    -0.426072   
O172     O      0.223520000000     0.497620000000     0.540090000000    -0.445813   
O173     O      0.275740000000     0.992180000000     0.538870000000    -0.438166   
O174     O      0.273240000000     0.493610000000     0.948330000000    -0.442778   
O175     O      0.275750000000     0.538060000000     0.492890000000    -0.438705   
O176     O      0.273450000000     0.947490000000     0.992690000000    -0.43877    
O177     O      0.038690000000     0.775570000000     0.994890000000    -0.43347    
O178     O      0.448170000000     0.775530000000     0.494700000000    -0.427173   
O179     O      0.992910000000     0.777320000000     0.540880000000    -0.43875    
O180     O      0.494150000000     0.773630000000     0.950420000000    -0.436959   
O181     O      0.988780000000     0.721430000000     0.952970000000    -0.425963   
O182     O      0.497350000000     0.725010000000     0.542820000000    -0.431461   
O183     O      0.448060000000     0.723560000000     0.002390000000    -0.427395   
O184     O      0.037850000000     0.723000000000     0.494890000000    -0.434643   
O185     O      0.198810000000     0.745100000000     0.968310000000    -0.433673   
O186     O      0.289200000000     0.745200000000     0.971130000000    -0.441094   
O187     O      0.245250000000     0.698780000000     0.968410000000    -0.433484   
O188     O      0.244760000000     0.789320000000     0.971120000000    -0.441528   
O189     O      0.241220000000     0.787460000000     0.523570000000    -0.427397   
O190     O      0.242260000000     0.697110000000     0.520860000000    -0.426004   
O191     O      0.287560000000     0.742220000000     0.523590000000    -0.439868   
O192     O      0.197120000000     0.741410000000     0.520750000000    -0.418117   
O193     O      0.494970000000     0.042300000000     0.219240000000    -0.43602    
O194     O      0.998270000000     0.451960000000     0.220450000000    -0.428641   
O195     O      0.951480000000     0.996490000000     0.220300000000    -0.444226   
O196     O      0.541810000000     0.497650000000     0.219320000000    -0.433583   
O197     O      0.542280000000     0.999100000000     0.271860000000    -0.440445   
O198     O      0.951940000000     0.496270000000     0.272880000000    -0.427431   
O199     O      0.497530000000     0.452590000000     0.273030000000    -0.436153   
O200     O      0.996630000000     0.042950000000     0.271770000000    -0.439071   
O201     O      0.968540000000     0.242150000000     0.291070000000    -0.436013   
O202     O      0.970530000000     0.254220000000     0.201420000000    -0.432567   
O203     O      0.968830000000     0.203200000000     0.240250000000    -0.421765   
O204     O      0.970550000000     0.293040000000     0.252170000000    -0.435859   
O205     O      0.522400000000     0.291970000000     0.244020000000    -0.441461   
O206     O      0.520340000000     0.202020000000     0.250380000000    -0.441944   
O207     O      0.522020000000     0.244080000000     0.202140000000    -0.436595   
O208     O      0.520400000000     0.250100000000     0.292370000000    -0.441343   
O209     O      0.792330000000     0.021790000000     0.240980000000    -0.438024   
O210     O      0.702440000000     0.022930000000     0.249040000000    -0.41701    
O211     O      0.751220000000     0.021130000000     0.290070000000    -0.430305   
O212     O      0.743600000000     0.023310000000     0.199920000000    -0.421276   
O213     O      0.751950000000     0.471480000000     0.198960000000    -0.441539   
O214     O      0.741260000000     0.469610000000     0.288680000000    -0.437975   
O215     O      0.701590000000     0.471450000000     0.238680000000    -0.436282   
O216     O      0.791520000000     0.469930000000     0.249150000000    -0.438847   
O217     O      0.721390000000     0.448730000000     0.999440000000    -0.438488   
O218     O      0.723160000000     0.038500000000     0.492660000000    -0.43985    
O219     O      0.720870000000     0.489830000000     0.450260000000    -0.426729   
O220     O      0.723520000000     0.997620000000     0.040090000000    -0.441896   
O221     O      0.775740000000     0.492180000000     0.038870000000    -0.432494   
O222     O      0.773240000000     0.993610000000     0.448320000000    -0.444682   
O223     O      0.775750000000     0.038060000000     0.992890000000    -0.43544    
O224     O      0.773450000000     0.447490000000     0.492690000000    -0.439089   
O225     O      0.538690000000     0.275570000000     0.494890000000    -0.436711   
O226     O      0.948170000000     0.275530000000     0.994700000000    -0.424992   
O227     O      0.492910000000     0.277320000000     0.040880000000    -0.433062   
O228     O      0.994150000000     0.273630000000     0.450420000000    -0.438827   
O229     O      0.488780000000     0.221430000000     0.452970000000    -0.426882   
O230     O      0.997350000000     0.225010000000     0.042820000000    -0.42688    
O231     O      0.948060000000     0.223560000000     0.502390000000    -0.437917   
O232     O      0.537850000000     0.223000000000     0.994890000000    -0.438557   
O233     O      0.698810000000     0.245100000000     0.468310000000    -0.435605   
O234     O      0.789200000000     0.245200000000     0.471130000000    -0.443241   
O235     O      0.745250000000     0.198780000000     0.468410000000    -0.435488   
O236     O      0.744760000000     0.289320000000     0.471120000000    -0.443569   
O237     O      0.741220000000     0.287460000000     0.023570000000    -0.421477   
O238     O      0.742260000000     0.197110000000     0.020860000000    -0.420332   
O239     O      0.787560000000     0.242220000000     0.023590000000    -0.433854   
O240     O      0.697120000000     0.241420000000     0.020750000000    -0.412581   
O241     O      0.494970000000     0.042300000000     0.719240000000    -0.436134   
O242     O      0.998270000000     0.451960000000     0.720450000000    -0.428772   
O243     O      0.951480000000     0.996490000000     0.720300000000    -0.444379   
O244     O      0.541810000000     0.497650000000     0.719320000000    -0.433693   
O245     O      0.542280000000     0.999100000000     0.771860000000    -0.440525   
O246     O      0.951940000000     0.496270000000     0.772880000000    -0.427495   
O247     O      0.497530000000     0.452590000000     0.773030000000    -0.436222   
O248     O      0.996630000000     0.042950000000     0.771770000000    -0.43915    
O249     O      0.968540000000     0.242150000000     0.791070000000    -0.436012   
O250     O      0.970530000000     0.254220000000     0.701420000000    -0.432622   
O251     O      0.968830000000     0.203200000000     0.740250000000    -0.421771   
O252     O      0.970550000000     0.293040000000     0.752170000000    -0.435887   
O253     O      0.522400000000     0.291970000000     0.744020000000    -0.44149    
O254     O      0.520340000000     0.202020000000     0.750380000000    -0.441969   
O255     O      0.522020000000     0.244080000000     0.702140000000    -0.436632   
O256     O      0.520400000000     0.250100000000     0.792370000000    -0.441369   
O257     O      0.792330000000     0.021790000000     0.740980000000    -0.43805    
O258     O      0.702440000000     0.022930000000     0.749040000000    -0.417005   
O259     O      0.751220000000     0.021130000000     0.790070000000    -0.430314   
O260     O      0.743600000000     0.023310000000     0.699920000000    -0.421299   
O261     O      0.751950000000     0.471480000000     0.698960000000    -0.44162    
O262     O      0.741260000000     0.469610000000     0.788680000000    -0.437977   
O263     O      0.701590000000     0.471450000000     0.738680000000    -0.436312   
O264     O      0.791520000000     0.469930000000     0.749150000000    -0.438882   
O265     O      0.721390000000     0.448730000000     0.499440000000    -0.437069   
O266     O      0.723160000000     0.038500000000     0.992660000000    -0.441082   
O267     O      0.720870000000     0.489830000000     0.950260000000    -0.425807   
O268     O      0.723520000000     0.997620000000     0.540090000000    -0.447083   
O269     O      0.775740000000     0.492180000000     0.538870000000    -0.437787   
O270     O      0.773240000000     0.993610000000     0.948330000000    -0.443777   
O271     O      0.775750000000     0.038060000000     0.492890000000    -0.434756   
O272     O      0.773450000000     0.447490000000     0.992690000000    -0.439519   
O273     O      0.538690000000     0.275570000000     0.994890000000    -0.437224   
O274     O      0.948170000000     0.275530000000     0.494700000000    -0.426419   
O275     O      0.492910000000     0.277320000000     0.540880000000    -0.438293   
O276     O      0.994150000000     0.273630000000     0.950420000000    -0.437839   
O277     O      0.488780000000     0.221430000000     0.952970000000    -0.425525   
O278     O      0.997350000000     0.225010000000     0.542820000000    -0.432409   
O279     O      0.948060000000     0.223560000000     0.002390000000    -0.426612   
O280     O      0.537850000000     0.223000000000     0.494890000000    -0.438368   
O281     O      0.698810000000     0.245100000000     0.968310000000    -0.433703   
O282     O      0.789200000000     0.245200000000     0.971130000000    -0.441067   
O283     O      0.745250000000     0.198780000000     0.968410000000    -0.433574   
O284     O      0.744760000000     0.289320000000     0.971120000000    -0.441412   
O285     O      0.741220000000     0.287460000000     0.523570000000    -0.427372   
O286     O      0.742260000000     0.197110000000     0.520860000000    -0.425994   
O287     O      0.787560000000     0.242220000000     0.523590000000    -0.439846   
O288     O      0.697120000000     0.241420000000     0.520750000000    -0.418155   
O289     O      0.494970000000     0.542300000000     0.219240000000    -0.439874   
O290     O      0.998270000000     0.951960000000     0.220450000000    -0.427845   
O291     O      0.951480000000     0.496490000000     0.220300000000    -0.443316   
O292     O      0.541810000000     0.997650000000     0.219320000000    -0.433978   
O293     O      0.542280000000     0.499100000000     0.271860000000    -0.439431   
O294     O      0.951940000000     0.996270000000     0.272880000000    -0.427827   
O295     O      0.497530000000     0.952590000000     0.273030000000    -0.435351   
O296     O      0.996630000000     0.542940000000     0.271770000000    -0.443026   
O297     O      0.968540000000     0.742150000000     0.291070000000    -0.436035   
O298     O      0.970530000000     0.754220000000     0.201420000000    -0.432575   
O299     O      0.968830000000     0.703200000000     0.240250000000    -0.421795   
O300     O      0.970550000000     0.793040000000     0.252170000000    -0.435864   
O301     O      0.522400000000     0.791970000000     0.244020000000    -0.441472   
O302     O      0.520340000000     0.702020000000     0.250380000000    -0.441997   
O303     O      0.522020000000     0.744080000000     0.202140000000    -0.436615   
O304     O      0.520400000000     0.750100000000     0.292370000000    -0.441367   
O305     O      0.792330000000     0.521790000000     0.240980000000    -0.442455   
O306     O      0.702440000000     0.522930000000     0.249040000000    -0.421239   
O307     O      0.751220000000     0.521130000000     0.290070000000    -0.434655   
O308     O      0.743600000000     0.523310000000     0.199920000000    -0.425634   
O309     O      0.751950000000     0.971470000000     0.198960000000    -0.439827   
O310     O      0.741260000000     0.969610000000     0.288680000000    -0.436453   
O311     O      0.701590000000     0.971450000000     0.238680000000    -0.434808   
O312     O      0.791520000000     0.969930000000     0.249150000000    -0.437293   
O313     O      0.721390000000     0.948730000000     0.999440000000    -0.437786   
O314     O      0.723160000000     0.538500000000     0.492660000000    -0.443855   
O315     O      0.720870000000     0.989830000000     0.450260000000    -0.427092   
O316     O      0.723520000000     0.497620000000     0.040090000000    -0.440817   
O317     O      0.775740000000     0.992180000000     0.038870000000    -0.432838   
O318     O      0.773240000000     0.493610000000     0.448320000000    -0.443728   
O319     O      0.775750000000     0.538060000000     0.992890000000    -0.439447   
O320     O      0.773450000000     0.947490000000     0.492690000000    -0.438386   
O321     O      0.538690000000     0.775570000000     0.494890000000    -0.436772   
O322     O      0.948170000000     0.775530000000     0.994700000000    -0.425037   
O323     O      0.492910000000     0.777320000000     0.040880000000    -0.43312    
O324     O      0.994150000000     0.773630000000     0.450420000000    -0.43888    
O325     O      0.488780000000     0.721430000000     0.452970000000    -0.426983   
O326     O      0.997350000000     0.725010000000     0.042820000000    -0.42695    
O327     O      0.948060000000     0.723560000000     0.502390000000    -0.438016   
O328     O      0.537850000000     0.723000000000     0.994890000000    -0.438652   
O329     O      0.698810000000     0.745100000000     0.468310000000    -0.435633   
O330     O      0.789200000000     0.745200000000     0.471130000000    -0.443269   
O331     O      0.745250000000     0.698780000000     0.468410000000    -0.435426   
O332     O      0.744760000000     0.789320000000     0.471120000000    -0.443704   
O333     O      0.741220000000     0.787460000000     0.023570000000    -0.4215     
O334     O      0.742260000000     0.697110000000     0.020860000000    -0.420323   
O335     O      0.787560000000     0.742220000000     0.023590000000    -0.433872   
O336     O      0.697120000000     0.741410000000     0.020750000000    -0.412545   
O337     O      0.494970000000     0.542300000000     0.719240000000    -0.439999   
O338     O      0.998270000000     0.951960000000     0.720450000000    -0.427974   
O339     O      0.951480000000     0.496490000000     0.720300000000    -0.443467   
O340     O      0.541810000000     0.997650000000     0.719320000000    -0.434088   
O341     O      0.542280000000     0.499100000000     0.771860000000    -0.43951    
O342     O      0.951940000000     0.996270000000     0.772880000000    -0.427891   
O343     O      0.497530000000     0.952590000000     0.773030000000    -0.435419   
O344     O      0.996630000000     0.542940000000     0.771770000000    -0.443111   
O345     O      0.968540000000     0.742150000000     0.791070000000    -0.436033   
O346     O      0.970530000000     0.754220000000     0.701420000000    -0.43263    
O347     O      0.968830000000     0.703200000000     0.740250000000    -0.421801   
O348     O      0.970550000000     0.793040000000     0.752170000000    -0.435892   
O349     O      0.522400000000     0.791970000000     0.744020000000    -0.441502   
O350     O      0.520340000000     0.702020000000     0.750380000000    -0.442023   
O351     O      0.522020000000     0.744080000000     0.702140000000    -0.436652   
O352     O      0.520400000000     0.750100000000     0.792370000000    -0.441393   
O353     O      0.792330000000     0.521790000000     0.740980000000    -0.442492   
O354     O      0.702440000000     0.522930000000     0.749040000000    -0.421243   
O355     O      0.751220000000     0.521130000000     0.790070000000    -0.434671   
O356     O      0.743600000000     0.523310000000     0.699920000000    -0.42567    
O357     O      0.751950000000     0.971470000000     0.698960000000    -0.439905   
O358     O      0.741260000000     0.969610000000     0.788680000000    -0.436453   
O359     O      0.701590000000     0.971450000000     0.738680000000    -0.434836   
O360     O      0.791520000000     0.969930000000     0.749150000000    -0.437324   
O361     O      0.721390000000     0.948730000000     0.499440000000    -0.436366   
O362     O      0.723160000000     0.538500000000     0.992660000000    -0.44509    
O363     O      0.720870000000     0.989830000000     0.950260000000    -0.42617    
O364     O      0.723520000000     0.497620000000     0.540090000000    -0.446006   
O365     O      0.775740000000     0.992180000000     0.538870000000    -0.438126   
O366     O      0.773240000000     0.493610000000     0.948330000000    -0.442822   
O367     O      0.775750000000     0.538060000000     0.492890000000    -0.438763   
O368     O      0.773450000000     0.947490000000     0.992690000000    -0.438817   
O369     O      0.538690000000     0.775570000000     0.994890000000    -0.437285   
O370     O      0.948170000000     0.775530000000     0.494700000000    -0.426468   
O371     O      0.492910000000     0.777320000000     0.540880000000    -0.438357   
O372     O      0.994150000000     0.773630000000     0.950420000000    -0.43789    
O373     O      0.488780000000     0.721430000000     0.952970000000    -0.425623   
O374     O      0.997350000000     0.725010000000     0.542820000000    -0.43249    
O375     O      0.948060000000     0.723560000000     0.002390000000    -0.426689   
O376     O      0.537850000000     0.723000000000     0.494890000000    -0.438463   
O377     O      0.698810000000     0.745100000000     0.968310000000    -0.433728   
O378     O      0.789200000000     0.745200000000     0.971130000000    -0.441092   
O379     O      0.745250000000     0.698780000000     0.968410000000    -0.43351    
O380     O      0.744760000000     0.789320000000     0.971120000000    -0.441543   
O381     O      0.741220000000     0.787460000000     0.523570000000    -0.427401   
O382     O      0.742260000000     0.697110000000     0.520860000000    -0.425999   
O383     O      0.787560000000     0.742220000000     0.523590000000    -0.439873   
O384     O      0.697120000000     0.741410000000     0.520750000000    -0.418128   


