data_structure

_audit_creation_method RASPA-1.0
_audit_creation_date 2023-6-5
_audit_author_name 'Poobodin Mano'

_cell_length_a    34.6941
_cell_length_b    34.7938
_cell_length_c    41.598
_cell_angle_alpha 89.9793
_cell_angle_beta  90.0206
_cell_angle_gamma 119.979
_cell_volume      43496.3

_symmetry_cell_setting          triclinic
_symmetry_space_group_name_Hall 'P 1'
_symmetry_space_group_name_H-M  'P 1'
_symmetry_Int_Tables_number     1

_symmetry_equiv_pos_as_xyz 'x,y,z'

loop_
_atom_site_label
_atom_site_type_symbol
_atom_site_fract_x
_atom_site_fract_y
_atom_site_fract_z
_atom_site_charge
C1       C      0.862610000000     0.677130000000     0.243760000000     0.434912   
C2       C      0.817170000000     0.671400000000     0.361660000000     0.429062   
C3       C      0.759370000000     0.636650000000     0.283230000000     0.434113   
C4       C      0.920390000000     0.711850000000     0.321340000000     0.433131   
C5       C      0.150340000000     0.822550000000     0.448790000000     0.42988    
C6       C      0.191290000000     0.858340000000     0.330070000000     0.429662   
C7       C      0.252590000000     0.884040000000     0.407410000000     0.432275   
C8       C      0.089530000000     0.796490000000     0.373610000000     0.441106   
C9       C      0.519220000000     0.003180000000     0.419370000000     0.439462   
C10      C      0.480160000000     0.004290000000     0.037350000000     0.439474   
C11      C      0.419510000000     0.966650000000     0.463130000000     0.437575   
C12      C      0.583240000000     0.042510000000     0.996200000000     0.430694   
C13      C      0.153520000000     0.320510000000     0.203970000000     0.430815   
C14      C      0.192670000000     0.330310000000     0.084680000000     0.438548   
C15      C      0.253370000000     0.364870000000     0.159770000000     0.434208   
C16      C      0.089980000000     0.285540000000     0.126530000000     0.439059   
C17      C      0.853980000000     0.181980000000     0.008330000000     0.432829   
C18      C      0.812300000000     0.149020000000     0.126810000000     0.432802   
C19      C      0.750970000000     0.124280000000     0.051470000000     0.438561   
C20      C      0.915130000000     0.204850000000     0.084050000000     0.431727   
C21      C      0.527440000000     0.521520000000     0.155760000000     0.440564   
C22      C      0.492030000000     0.486950000000     0.274860000000     0.434071   
C23      C      0.427250000000     0.456810000000     0.202520000000     0.442732   
C24      C      0.592710000000     0.550770000000     0.228350000000     0.440883   
C25      C      0.150190000000     0.333010000000     0.335720000000     0.442436   
C26      C      0.188590000000     0.331090000000     0.453160000000     0.432761   
C27      C      0.212180000000     0.301310000000     0.370770000000     0.443878   
C28      C      0.121990000000     0.368120000000     0.413740000000     0.430445   
C29      C      0.326780000000     0.156270000000     0.352210000000     0.431434   
C30      C      0.323010000000     0.188440000000     0.232840000000     0.432352   
C31      C      0.288930000000     0.220020000000     0.306720000000     0.427425   
C32      C      0.361560000000     0.127180000000     0.278460000000     0.428954   
C33      C      0.995380000000     0.480270000000     0.038200000000     0.438495   
C34      C      0.002040000000     0.518000000000     0.418970000000     0.431587   
C35      C      0.962430000000     0.544500000000     0.992070000000     0.42812    
C36      C      0.035380000000     0.451800000000     0.464930000000     0.436983   
C37      C      0.660490000000     0.856710000000     0.077090000000     0.431292   
C38      C      0.672490000000     0.822060000000     0.194680000000     0.433314   
C39      C      0.702570000000     0.795760000000     0.115580000000     0.438089   
C40      C      0.629230000000     0.883410000000     0.155680000000     0.427922   
C41      C      0.854670000000     0.670550000000     0.111790000000     0.427858   
C42      C      0.815170000000     0.675610000000     0.993700000000     0.433406   
C43      C      0.791770000000     0.710860000000     0.070560000000     0.428645   
C44      C      0.877140000000     0.634320000000     0.033130000000     0.435747   
C45      C      0.514640000000     0.997990000000     0.287140000000     0.431219   
C46      C      0.480660000000     0.006160000000     0.168660000000     0.433748   
C47      C      0.450690000000     0.036820000000     0.245390000000     0.437032   
C48      C      0.544350000000     0.966890000000     0.210950000000     0.435458   
C49      C      0.325270000000     0.140190000000     0.983160000000     0.438374   
C50      C      0.328060000000     0.181360000000     0.101080000000     0.440902   
C51      C      0.366740000000     0.242910000000     0.024710000000     0.431851   
C52      C      0.288890000000     0.080860000000     0.060840000000     0.427745   
C53      C      0.518520000000     0.518390000000     0.024200000000     0.43328    
C54      C      0.483230000000     0.477060000000     0.405910000000     0.43915    
C55      C      0.455950000000     0.416030000000     0.979990000000     0.438057   
C56      C      0.544330000000     0.579460000000     0.447710000000     0.431503   
C57      C      0.184720000000     0.858150000000     0.198110000000     0.436436   
C58      C      0.144730000000     0.813990000000     0.080300000000     0.436576   
C59      C      0.120420000000     0.753970000000     0.155850000000     0.434912   
C60      C      0.207440000000     0.917630000000     0.122190000000     0.435614   
C61      C      0.993420000000     0.479940000000     0.170430000000     0.430552   
C62      C      0.005330000000     0.529550000000     0.287680000000     0.439373   
C63      C      0.036820000000     0.584850000000     0.208850000000     0.429507   
C64      C      0.962920000000     0.424670000000     0.249430000000     0.43095    
C65      C      0.816070000000     0.152320000000     0.258010000000     0.44028    
C66      C      0.854270000000     0.189630000000     0.376300000000     0.439589   
C67      C      0.880000000000     0.256090000000     0.302240000000     0.4379     
C68      C      0.792510000000     0.092000000000     0.333990000000     0.437186   
C69      C      0.666470000000     0.851830000000     0.445690000000     0.439714   
C70      C      0.670500000000     0.818890000000     0.326740000000     0.440641   
C71      C      0.628800000000     0.750290000000     0.399130000000     0.439072   
C72      C      0.706440000000     0.915850000000     0.372620000000     0.429795   
C73      C      0.771350000000     0.981590000000     0.356120000000     0.0248542  
C74      C      0.704460000000     0.982250000000     0.363350000000    -0.0125766  
C75      C      0.792310000000     0.025700000000     0.346350000000     0.0285946  
C76      C      0.726250000000     0.027960000000     0.356480000000     0.147319   
C77      C      0.964650000000     0.359490000000     0.265030000000     0.0277662  
C78      C      0.902680000000     0.367010000000     0.277860000000    -0.0123135  
C79      C      0.943830000000     0.317380000000     0.279240000000     0.0333061  
C80      C      0.883710000000     0.327030000000     0.295120000000     0.14837    
C81      C      0.101820000000     0.650490000000     0.191900000000     0.0261611  
C82      C      0.031720000000     0.644390000000     0.184640000000    -0.012169   
C83      C      0.122140000000     0.692110000000     0.177360000000     0.0320592  
C84      C      0.051680000000     0.685640000000     0.168610000000     0.148283   
C85      C      0.611010000000     0.645700000000     0.433250000000     0.0274129  
C86      C      0.541150000000     0.638050000000     0.421390000000    -0.0128663  
C87      C      0.631910000000     0.688420000000     0.420100000000     0.0335376  
C88      C      0.561790000000     0.678780000000     0.405110000000     0.148084   
C89      C      0.290460000000     0.016860000000     0.079720000000     0.0271453  
C90      C      0.227980000000     0.024650000000     0.089850000000    -0.0134854  
C91      C      0.270320000000     0.976570000000     0.096450000000     0.0332554  
C92      C      0.209670000000     0.986810000000     0.109550000000     0.14613    
C93      C      0.433460000000     0.309650000000     0.012530000000     0.0262128  
C94      C      0.364390000000     0.304530000000     0.001870000000    -0.0120476  
C95      C      0.455370000000     0.352490000000     0.000140000000     0.0326798  
C96      C      0.386110000000     0.347120000000     0.987970000000     0.148806   
C97      C      0.635880000000     0.789190000000     0.243760000000     0.0266713  
C98      C      0.712860000000     0.840310000000     0.243710000000    -0.0118348  
C99      C      0.635690000000     0.790170000000     0.277220000000     0.0354935  
C100     C      0.713320000000     0.841590000000     0.277480000000     0.148048   
C101     C      0.623130000000     0.837230000000     0.026760000000     0.0256794  
C102     C      0.699990000000     0.888900000000     0.028780000000    -0.0137766  
C103     C      0.625060000000     0.837260000000     0.993310000000     0.0346992  
C104     C      0.702620000000     0.888130000000     0.995110000000     0.148827   
C105     C      0.791050000000     0.775140000000     0.088970000000     0.0261614  
C106     C      0.723480000000     0.708170000000     0.083300000000    -0.0119099  
C107     C      0.768090000000     0.795720000000     0.100260000000     0.0317565  
C108     C      0.699500000000     0.729450000000     0.092130000000     0.148034   
C109     C      0.564250000000     0.883820000000     0.173090000000     0.026117   
C110     C      0.634020000000     0.947980000000     0.180060000000    -0.0124107  
C111     C      0.543760000000     0.904560000000     0.188190000000     0.0326927  
C112     C      0.613830000000     0.968890000000     0.196570000000     0.148131   
C113     C      0.043400000000     0.545830000000     0.370770000000     0.0268018  
C114     C      0.966050000000     0.517960000000     0.370640000000    -0.0120176  
C115     C      0.043960000000     0.548920000000     0.337280000000     0.0326776  
C116     C      0.967480000000     0.526860000000     0.337570000000     0.146313   
C117     C      0.029980000000     0.483740000000     0.121220000000     0.0264646  
C118     C      0.953000000000     0.457920000000     0.121370000000    -0.0120833  
C119     C      0.030090000000     0.485270000000     0.087720000000     0.0345034  
C120     C      0.952470000000     0.459170000000     0.087580000000     0.147496   
C121     C      0.965550000000     0.611090000000     0.010740000000     0.0256856  
C122     C      0.896540000000     0.548380000000     0.998250000000    -0.0151837  
C123     C      0.943550000000     0.633630000000     0.020620000000     0.0335243  
C124     C      0.874370000000     0.571410000000     0.006310000000     0.147679   
C125     C      0.365910000000     0.168370000000     0.401640000000     0.0261738  
C126     C      0.288930000000     0.117250000000     0.399470000000    -0.0132229  
C127     C      0.365570000000     0.161540000000     0.434740000000     0.03459    
C128     C      0.288010000000     0.110970000000     0.432860000000     0.149982   
C129     C      0.362560000000     0.215880000000     0.183740000000     0.0257552  
C130     C      0.284720000000     0.168980000000     0.183280000000    -0.0128355  
C131     C      0.363500000000     0.211610000000     0.150420000000     0.0354897  
C132     C      0.285030000000     0.164180000000     0.149890000000     0.148446   
C133     C      0.426680000000     0.125180000000     0.264280000000     0.0273186  
C134     C      0.359250000000     0.058040000000     0.269430000000    -0.0111338  
C135     C      0.448390000000     0.102060000000     0.256360000000     0.031547   
C136     C      0.381460000000     0.033870000000     0.263550000000     0.147331   
C137     C      0.120550000000     0.432410000000     0.430630000000     0.0258495  
C138     C      0.056180000000     0.362570000000     0.436870000000    -0.0121811  
C139     C      0.099130000000     0.452670000000     0.444880000000     0.0329894  
C140     C      0.034310000000     0.382660000000     0.452160000000     0.149032   
C141     C      0.295890000000     0.282190000000     0.334950000000     0.025479   
C142     C      0.226670000000     0.231810000000     0.311660000000    -0.0120617  
C143     C      0.276100000000     0.302420000000     0.351550000000     0.0367399  
C144     C      0.206840000000     0.254480000000     0.326450000000     0.142159   
C145     C      0.465850000000     0.499550000000     0.324160000000     0.0267418  
C146     C      0.494170000000     0.450470000000     0.322570000000    -0.0128622  
C147     C      0.461260000000     0.494590000000     0.357370000000     0.0347488  
C148     C      0.491060000000     0.446370000000     0.356190000000     0.149479   
C149     C      0.503210000000     0.540330000000     0.074500000000     0.0259416  
C150     C      0.555190000000     0.515600000000     0.071620000000    -0.0135076  
C151     C      0.507420000000     0.542860000000     0.107850000000     0.0343657  
C152     C      0.558830000000     0.516920000000     0.105260000000     0.148608   
C153     C      0.850170000000     0.216610000000     0.460150000000     0.0250326  
C154     C      0.873280000000     0.163450000000     0.458390000000    -0.0126813  
C155     C      0.848620000000     0.216780000000     0.426670000000     0.0342129  
C156     C      0.872380000000     0.163550000000     0.424670000000     0.147324   
C157     C      0.790810000000     0.166880000000     0.176170000000     0.0265305  
C158     C      0.816550000000     0.115670000000     0.175520000000    -0.0137734  
C159     C      0.790270000000     0.166030000000     0.209620000000     0.0342807  
C160     C      0.817530000000     0.115690000000     0.209290000000     0.148498   
C161     C      0.154710000000     0.292340000000     0.256180000000     0.0396712  
C162     C      0.144310000000     0.354130000000     0.250690000000    -0.0110968  
C163     C      0.155220000000     0.296100000000     0.289810000000     0.00275138 
C164     C      0.143270000000     0.357800000000     0.284130000000     0.148222   
C165     C      0.176060000000     0.291980000000     0.002300000000     0.02573    
C166     C      0.222500000000     0.369700000000     0.001570000000    -0.0134499  
C167     C      0.178830000000     0.292130000000     0.035680000000     0.0347013  
C168     C      0.224550000000     0.370390000000     0.035360000000     0.149629   
C169     C      0.980400000000     0.268040000000     0.104200000000     0.0270007  
C170     C      0.981420000000     0.202280000000     0.092890000000    -0.0126984  
C171     C      0.024440000000     0.287760000000     0.114720000000     0.0342038  
C172     C      0.026550000000     0.222600000000     0.101480000000     0.147463   
C173     C      0.318800000000     0.431850000000     0.172850000000     0.026526   
C174     C      0.316940000000     0.363790000000     0.180140000000    -0.0121669  
C175     C      0.361790000000     0.454360000000     0.184840000000     0.0338445  
C176     C      0.359700000000     0.386050000000     0.193860000000     0.150645   
C177     C      0.547760000000     0.035960000000     0.335840000000     0.0256747  
C178     C      0.496590000000     0.959210000000     0.336770000000    -0.0127899  
C179     C      0.547240000000     0.036960000000     0.369340000000     0.0339688  
C180     C      0.495770000000     0.959550000000     0.370540000000     0.147933   
C181     C      0.497140000000     0.045130000000     0.119030000000     0.0272429  
C182     C      0.446380000000     0.968180000000     0.120280000000    -0.0125852  
C183     C      0.495140000000     0.044460000000     0.085570000000     0.0350593  
C184     C      0.444930000000     0.966940000000     0.086560000000     0.149187   
C185     C      0.649960000000     0.107560000000     0.011830000000     0.0258409  
C186     C      0.641000000000     0.037210000000     0.023000000000    -0.0129556  
C187     C      0.691110000000     0.127630000000     0.027320000000     0.0331779  
C188     C      0.681340000000     0.056950000000     0.040110000000     0.149844   
C189     C      0.211580000000     0.841930000000     0.279480000000     0.0254646  
C190     C      0.183160000000     0.890790000000     0.282000000000    -0.0137868  
C191     C      0.211230000000     0.843580000000     0.245980000000     0.0337865  
C192     C      0.181370000000     0.891640000000     0.248190000000     0.14731    
C193     C      0.126070000000     0.836620000000     0.998620000000     0.0263554  
C194     C      0.152290000000     0.785900000000     0.996520000000    -0.0135744  
C195     C      0.122430000000     0.832130000000     0.031980000000     0.0341855  
C196     C      0.150330000000     0.782390000000     0.030230000000     0.148152   
C197     C      0.317600000000     0.950040000000     0.424550000000     0.027429   
C198     C      0.309890000000     0.880050000000     0.435180000000    -0.0128587  
C199     C      0.359110000000     0.970450000000     0.439740000000     0.0329626  
C200     C      0.349070000000     0.899950000000     0.453390000000     0.145568   
C201     C      0.793590000000     0.633810000000     0.411880000000     0.0257672  
C202     C      0.821520000000     0.710910000000     0.409580000000    -0.0128741  
C203     C      0.791300000000     0.635150000000     0.445350000000     0.0340183  
C204     C      0.820740000000     0.712880000000     0.443400000000     0.14865    
C205     C      0.840500000000     0.633910000000     0.162380000000     0.0252597  
C206     C      0.890660000000     0.710790000000     0.159290000000    -0.0140942  
C207     C      0.844610000000     0.635860000000     0.195820000000     0.0337094  
C208     C      0.893670000000     0.713460000000     0.193090000000     0.148332   
C209     C      0.694300000000     0.637360000000     0.265740000000     0.0281971  
C210     C      0.703650000000     0.576210000000     0.254150000000    -0.0124024  
C211     C      0.652780000000     0.615960000000     0.250640000000     0.034791   
C212     C      0.664380000000     0.556700000000     0.236140000000     0.148618   
C213     C      0.986210000000     0.777150000000     0.337020000000     0.0260267  
C214     C      0.980000000000     0.707400000000     0.345920000000    -0.0122688  
C215     C      0.027790000000     0.797790000000     0.351560000000     0.0339248  
C216     C      0.021210000000     0.727760000000     0.361940000000     0.150023   
C217     C      0.862610000000     0.677130000000     0.743760000000     0.434923   
C218     C      0.817170000000     0.671400000000     0.861660000000     0.429077   
C219     C      0.759370000000     0.636650000000     0.783230000000     0.434343   
C220     C      0.920390000000     0.711850000000     0.821340000000     0.433187   
C221     C      0.150340000000     0.822550000000     0.948790000000     0.430084   
C222     C      0.191290000000     0.858330000000     0.830070000000     0.429655   
C223     C      0.252590000000     0.884040000000     0.907410000000     0.432245   
C224     C      0.089530000000     0.796490000000     0.873610000000     0.441116   
C225     C      0.519220000000     0.003180000000     0.919370000000     0.439358   
C226     C      0.480160000000     0.004290000000     0.537350000000     0.439451   
C227     C      0.419510000000     0.966660000000     0.963130000000     0.437564   
C228     C      0.583240000000     0.042510000000     0.496210000000     0.430636   
C229     C      0.153520000000     0.320510000000     0.703970000000     0.43081    
C230     C      0.192670000000     0.330310000000     0.584680000000     0.43855    
C231     C      0.253370000000     0.364880000000     0.659770000000     0.434214   
C232     C      0.089980000000     0.285540000000     0.626530000000     0.439083   
C233     C      0.853980000000     0.181980000000     0.508330000000     0.432768   
C234     C      0.812300000000     0.149020000000     0.626810000000     0.432679   
C235     C      0.750970000000     0.124280000000     0.551470000000     0.438557   
C236     C      0.915130000000     0.204850000000     0.584050000000     0.431677   
C237     C      0.527440000000     0.521520000000     0.655760000000     0.440361   
C238     C      0.492030000000     0.486950000000     0.774860000000     0.43407    
C239     C      0.427250000000     0.456810000000     0.702520000000     0.442935   
C240     C      0.592710000000     0.550770000000     0.728350000000     0.440888   
C241     C      0.150190000000     0.333000000000     0.835720000000     0.44244    
C242     C      0.188590000000     0.331090000000     0.953160000000     0.432779   
C243     C      0.212180000000     0.301310000000     0.870770000000     0.443796   
C244     C      0.121990000000     0.368120000000     0.913740000000     0.430586   
C245     C      0.326780000000     0.156270000000     0.852210000000     0.431386   
C246     C      0.323000000000     0.188440000000     0.732840000000     0.432316   
C247     C      0.288930000000     0.220020000000     0.806720000000     0.427417   
C248     C      0.361560000000     0.127180000000     0.778460000000     0.428925   
C249     C      0.995380000000     0.480270000000     0.538200000000     0.438718   
C250     C      0.002040000000     0.518000000000     0.918970000000     0.431579   
C251     C      0.962430000000     0.544500000000     0.492070000000     0.428229   
C252     C      0.035380000000     0.451800000000     0.964930000000     0.436928   
C253     C      0.660490000000     0.856710000000     0.577090000000     0.431286   
C254     C      0.672490000000     0.822060000000     0.694680000000     0.433291   
C255     C      0.702570000000     0.795760000000     0.615580000000     0.437887   
C256     C      0.629230000000     0.883410000000     0.655680000000     0.42818    
C257     C      0.854670000000     0.670550000000     0.611790000000     0.427705   
C258     C      0.815170000000     0.675610000000     0.493700000000     0.433571   
C259     C      0.791770000000     0.710870000000     0.570560000000     0.42866    
C260     C      0.877150000000     0.634320000000     0.533130000000     0.435487   
C261     C      0.514640000000     0.997990000000     0.787140000000     0.431207   
C262     C      0.480660000000     0.006160000000     0.668660000000     0.433614   
C263     C      0.450690000000     0.036810000000     0.745390000000     0.437036   
C264     C      0.544350000000     0.966890000000     0.710950000000     0.435462   
C265     C      0.325270000000     0.140190000000     0.483160000000     0.438452   
C266     C      0.328060000000     0.181360000000     0.601070000000     0.440881   
C267     C      0.366740000000     0.242910000000     0.524710000000     0.431848   
C268     C      0.288890000000     0.080860000000     0.560840000000     0.427746   
C269     C      0.518520000000     0.518390000000     0.524200000000     0.433067   
C270     C      0.483230000000     0.477060000000     0.905910000000     0.439252   
C271     C      0.455940000000     0.416030000000     0.480000000000     0.438102   
C272     C      0.544330000000     0.579460000000     0.947710000000     0.431543   
C273     C      0.184720000000     0.858140000000     0.698110000000     0.436432   
C274     C      0.144730000000     0.813990000000     0.580300000000     0.43661    
C275     C      0.120420000000     0.753970000000     0.655850000000     0.435371   
C276     C      0.207440000000     0.917630000000     0.622190000000     0.435623   
C277     C      0.993420000000     0.479940000000     0.670430000000     0.430579   
C278     C      0.005330000000     0.529550000000     0.787680000000     0.439498   
C279     C      0.036820000000     0.584850000000     0.708850000000     0.429734   
C280     C      0.962920000000     0.424670000000     0.749430000000     0.430919   
C281     C      0.816080000000     0.152320000000     0.758010000000     0.440429   
C282     C      0.854270000000     0.189630000000     0.876300000000     0.439621   
C283     C      0.880010000000     0.256090000000     0.802240000000     0.437919   
C284     C      0.792520000000     0.092000000000     0.833990000000     0.437212   
C285     C      0.666480000000     0.851830000000     0.945700000000     0.439554   
C286     C      0.670510000000     0.818890000000     0.826740000000     0.44032    
C287     C      0.628800000000     0.750290000000     0.899130000000     0.439054   
C288     C      0.706440000000     0.915850000000     0.872620000000     0.429697   
C289     C      0.771360000000     0.981580000000     0.856120000000     0.0247952  
C290     C      0.704460000000     0.982250000000     0.863350000000    -0.0126315  
C291     C      0.792310000000     0.025700000000     0.846350000000     0.0286275  
C292     C      0.726250000000     0.027960000000     0.856480000000     0.147353   
C293     C      0.964660000000     0.359490000000     0.765030000000     0.027681   
C294     C      0.902680000000     0.367000000000     0.777860000000    -0.0123284  
C295     C      0.943830000000     0.317380000000     0.779240000000     0.0333453  
C296     C      0.883710000000     0.327030000000     0.795130000000     0.148471   
C297     C      0.101820000000     0.650490000000     0.691900000000     0.0261741  
C298     C      0.031720000000     0.644390000000     0.684640000000    -0.0121778  
C299     C      0.122140000000     0.692110000000     0.677360000000     0.0320303  
C300     C      0.051690000000     0.685640000000     0.668610000000     0.148313   
C301     C      0.611010000000     0.645700000000     0.933250000000     0.0274472  
C302     C      0.541150000000     0.638050000000     0.921390000000    -0.0128839  
C303     C      0.631910000000     0.688410000000     0.920100000000     0.0335144  
C304     C      0.561790000000     0.678780000000     0.905110000000     0.148008   
C305     C      0.290460000000     0.016860000000     0.579720000000     0.0271646  
C306     C      0.227980000000     0.024650000000     0.589850000000    -0.0134899  
C307     C      0.270320000000     0.976570000000     0.596450000000     0.0332433  
C308     C      0.209670000000     0.986810000000     0.609550000000     0.146132   
C309     C      0.433460000000     0.309650000000     0.512530000000     0.0261734  
C310     C      0.364390000000     0.304530000000     0.501880000000    -0.0120718  
C311     C      0.455370000000     0.352490000000     0.500130000000     0.0326803  
C312     C      0.386100000000     0.347120000000     0.487970000000     0.14885    
C313     C      0.635880000000     0.789190000000     0.743760000000     0.0266725  
C314     C      0.712870000000     0.840310000000     0.743710000000    -0.0118839  
C315     C      0.635690000000     0.790170000000     0.777220000000     0.0354954  
C316     C      0.713330000000     0.841580000000     0.777480000000     0.14805    
C317     C      0.623130000000     0.837230000000     0.526760000000     0.025586   
C318     C      0.699990000000     0.888900000000     0.528780000000    -0.0138686  
C319     C      0.625060000000     0.837260000000     0.493310000000     0.0347822  
C320     C      0.702610000000     0.888130000000     0.495110000000     0.148925   
C321     C      0.791050000000     0.775140000000     0.588970000000     0.0261379  
C322     C      0.723480000000     0.708170000000     0.583300000000    -0.011874   
C323     C      0.768090000000     0.795720000000     0.600260000000     0.031766   
C324     C      0.699500000000     0.729450000000     0.592130000000     0.148004   
C325     C      0.564250000000     0.883820000000     0.673090000000     0.026178   
C326     C      0.634020000000     0.947980000000     0.680050000000    -0.0123714  
C327     C      0.543750000000     0.904560000000     0.688190000000     0.0326508  
C328     C      0.613830000000     0.968890000000     0.696570000000     0.148107   
C329     C      0.043400000000     0.545830000000     0.870770000000     0.0268401  
C330     C      0.966060000000     0.517960000000     0.870640000000    -0.0119235  
C331     C      0.043970000000     0.548930000000     0.837280000000     0.0326082  
C332     C      0.967480000000     0.526860000000     0.837570000000     0.146269   
C333     C      0.029980000000     0.483740000000     0.621220000000     0.026441   
C334     C      0.953010000000     0.457920000000     0.621370000000    -0.0119555  
C335     C      0.030090000000     0.485260000000     0.587720000000     0.0345569  
C336     C      0.952470000000     0.459160000000     0.587580000000     0.147342   
C337     C      0.965550000000     0.611090000000     0.510740000000     0.0256927  
C338     C      0.896540000000     0.548370000000     0.498250000000    -0.0150323  
C339     C      0.943550000000     0.633630000000     0.520620000000     0.0334828  
C340     C      0.874370000000     0.571410000000     0.506310000000     0.14756    
C341     C      0.365900000000     0.168360000000     0.901640000000     0.0262538  
C342     C      0.288930000000     0.117250000000     0.899470000000    -0.0132022  
C343     C      0.365570000000     0.161540000000     0.934740000000     0.034533   
C344     C      0.288010000000     0.110970000000     0.932860000000     0.14993    
C345     C      0.362560000000     0.215880000000     0.683740000000     0.0257211  
C346     C      0.284720000000     0.168980000000     0.683280000000    -0.0127706  
C347     C      0.363500000000     0.211610000000     0.650420000000     0.0354889  
C348     C      0.285030000000     0.164180000000     0.649890000000     0.148354   
C349     C      0.426680000000     0.125180000000     0.764280000000     0.0273172  
C350     C      0.359250000000     0.058040000000     0.769430000000    -0.0111381  
C351     C      0.448390000000     0.102060000000     0.756360000000     0.0315255  
C352     C      0.381460000000     0.033870000000     0.763550000000     0.147345   
C353     C      0.120540000000     0.432400000000     0.930620000000     0.0259525  
C354     C      0.056180000000     0.362570000000     0.936870000000    -0.0121535  
C355     C      0.099130000000     0.452670000000     0.944880000000     0.0329203  
C356     C      0.034310000000     0.382660000000     0.952160000000     0.148971   
C357     C      0.295890000000     0.282190000000     0.834950000000     0.0254578  
C358     C      0.226660000000     0.231810000000     0.811660000000    -0.0121441  
C359     C      0.276100000000     0.302420000000     0.851550000000     0.0367504  
C360     C      0.206840000000     0.254480000000     0.826450000000     0.142186   
C361     C      0.465850000000     0.499550000000     0.824170000000     0.0267084  
C362     C      0.494170000000     0.450470000000     0.822570000000    -0.0128903  
C363     C      0.461260000000     0.494590000000     0.857370000000     0.0347545  
C364     C      0.491060000000     0.446370000000     0.856180000000     0.149432   
C365     C      0.503210000000     0.540340000000     0.574500000000     0.025897   
C366     C      0.555190000000     0.515600000000     0.571620000000    -0.0135101  
C367     C      0.507420000000     0.542860000000     0.607850000000     0.0343907  
C368     C      0.558830000000     0.516920000000     0.605270000000     0.148697   
C369     C      0.850170000000     0.216610000000     0.960150000000     0.0250624  
C370     C      0.873290000000     0.163450000000     0.958390000000    -0.0128097  
C371     C      0.848620000000     0.216780000000     0.926670000000     0.0342147  
C372     C      0.872380000000     0.163550000000     0.924670000000     0.147403   
C373     C      0.790810000000     0.166880000000     0.676170000000     0.0265289  
C374     C      0.816550000000     0.115670000000     0.675520000000    -0.0137385  
C375     C      0.790270000000     0.166030000000     0.709620000000     0.034274   
C376     C      0.817540000000     0.115690000000     0.709290000000     0.148462   
C377     C      0.154710000000     0.292330000000     0.756180000000     0.039586   
C378     C      0.144310000000     0.354130000000     0.750700000000    -0.0111929  
C379     C      0.155220000000     0.296100000000     0.789810000000     0.00279198 
C380     C      0.143270000000     0.357800000000     0.784130000000     0.148341   
C381     C      0.176070000000     0.291980000000     0.502300000000     0.0255882  
C382     C      0.222500000000     0.369700000000     0.501570000000    -0.013589   
C383     C      0.178830000000     0.292130000000     0.535680000000     0.0347436  
C384     C      0.224550000000     0.370390000000     0.535360000000     0.149663   
C385     C      0.980400000000     0.268040000000     0.604200000000     0.026989   
C386     C      0.981420000000     0.202280000000     0.592890000000    -0.0126641  
C387     C      0.024440000000     0.287760000000     0.614720000000     0.034168   
C388     C      0.026550000000     0.222600000000     0.601480000000     0.147463   
C389     C      0.318800000000     0.431850000000     0.672850000000     0.0265249  
C390     C      0.316940000000     0.363790000000     0.680140000000    -0.0121554  
C391     C      0.361790000000     0.454360000000     0.684840000000     0.0338311  
C392     C      0.359700000000     0.386040000000     0.693860000000     0.150642   
C393     C      0.547760000000     0.035960000000     0.835840000000     0.0256773  
C394     C      0.496590000000     0.959210000000     0.836770000000    -0.0127719  
C395     C      0.547240000000     0.036960000000     0.869340000000     0.0339637  
C396     C      0.495770000000     0.959550000000     0.870540000000     0.147885   
C397     C      0.497140000000     0.045130000000     0.619030000000     0.0272443  
C398     C      0.446380000000     0.968180000000     0.620280000000    -0.0125977  
C399     C      0.495140000000     0.044460000000     0.585560000000     0.0350641  
C400     C      0.444940000000     0.966940000000     0.586560000000     0.149196   
C401     C      0.649960000000     0.107560000000     0.511840000000     0.025727   
C402     C      0.641000000000     0.037210000000     0.523000000000    -0.0128648  
C403     C      0.691110000000     0.127630000000     0.527330000000     0.0332525  
C404     C      0.681350000000     0.056950000000     0.540120000000     0.149905   
C405     C      0.211580000000     0.841930000000     0.779480000000     0.025458   
C406     C      0.183160000000     0.890790000000     0.782000000000    -0.0138173  
C407     C      0.211230000000     0.843580000000     0.745980000000     0.0337753  
C408     C      0.181370000000     0.891640000000     0.748190000000     0.147312   
C409     C      0.126070000000     0.836620000000     0.498620000000     0.0263942  
C410     C      0.152300000000     0.785900000000     0.496520000000    -0.0135781  
C411     C      0.122440000000     0.832130000000     0.531980000000     0.0341775  
C412     C      0.150330000000     0.782390000000     0.530230000000     0.148122   
C413     C      0.317600000000     0.950040000000     0.924550000000     0.0274262  
C414     C      0.309890000000     0.880050000000     0.935180000000    -0.0128738  
C415     C      0.359100000000     0.970450000000     0.939740000000     0.0329044  
C416     C      0.349070000000     0.899950000000     0.953390000000     0.145612   
C417     C      0.793590000000     0.633820000000     0.911880000000     0.0258331  
C418     C      0.821530000000     0.710910000000     0.909580000000    -0.0128172  
C419     C      0.791300000000     0.635150000000     0.945350000000     0.0339627  
C420     C      0.820740000000     0.712880000000     0.943400000000     0.148547   
C421     C      0.840500000000     0.633910000000     0.662390000000     0.025228   
C422     C      0.890660000000     0.710790000000     0.659290000000    -0.0141166  
C423     C      0.844610000000     0.635860000000     0.695820000000     0.0337064  
C424     C      0.893670000000     0.713460000000     0.693090000000     0.148362   
C425     C      0.694300000000     0.637360000000     0.765730000000     0.0282336  
C426     C      0.703650000000     0.576210000000     0.754150000000    -0.0124233  
C427     C      0.652780000000     0.615960000000     0.750640000000     0.0347712  
C428     C      0.664380000000     0.556700000000     0.736140000000     0.148684   
C429     C      0.986210000000     0.777150000000     0.837020000000     0.0260844  
C430     C      0.980000000000     0.707400000000     0.845920000000    -0.0122693  
C431     C      0.027790000000     0.797800000000     0.851560000000     0.0338377  
C432     C      0.021210000000     0.727760000000     0.861940000000     0.150016   
H1       H      0.826870000000     0.040460000000     0.339140000000     0.033152   
H2       H      0.790740000000     0.964950000000     0.356130000000     0.0327118  
H3       H      0.669830000000     0.965970000000     0.370740000000     0.0515602  
H4       H      0.718870000000     0.083890000000     0.367140000000     0.109674   
H5       H      0.670280000000     0.032410000000     0.369990000000     0.0911051  
H6       H      0.960970000000     0.298530000000     0.278030000000     0.0396951  
H7       H      0.997160000000     0.371640000000     0.254230000000     0.0380692  
H8       H      0.886290000000     0.386630000000     0.278810000000     0.0494557  
H9       H      0.835150000000     0.338530000000     0.315880000000     0.0869902  
H10      H      0.840050000000     0.295770000000     0.334440000000     0.106362   
H11      H      0.158190000000     0.709730000000     0.176020000000     0.0358106  
H12      H      0.123080000000     0.637910000000     0.200150000000     0.0381255  
H13      H      0.995690000000     0.625640000000     0.186350000000     0.0513586  
H14      H      0.989810000000     0.678420000000     0.155830000000     0.0923007  
H15      H      0.035190000000     0.721970000000     0.135740000000     0.108592   
H16      H      0.667930000000     0.707460000000     0.421290000000     0.0393399  
H17      H      0.631600000000     0.633340000000     0.443260000000     0.0393234  
H18      H      0.505110000000     0.618180000000     0.420390000000     0.0486613  
H19      H      0.501390000000     0.667620000000     0.385130000000     0.0866469  
H20      H      0.548810000000     0.711440000000     0.367070000000     0.106447   
H21      H      0.287920000000     0.958150000000     0.097230000000     0.0389612  
H22      H      0.323010000000     0.028250000000     0.069230000000     0.0402     
H23      H      0.211030000000     0.043710000000     0.088680000000     0.0440619  
H24      H      0.160530000000     0.999540000000     0.127520000000     0.0837288  
H25      H      0.166310000000     0.959570000000     0.149550000000     0.102065   
H26      H      0.491450000000     0.370160000000     0.000940000000     0.0359392  
H27      H      0.453690000000     0.296200000000     0.021410000000     0.0383598  
H28      H      0.328290000000     0.285780000000     0.001400000000     0.0523141  
H29      H      0.373550000000     0.386570000000     0.455280000000     0.1084     
H30      H      0.325970000000     0.341340000000     0.471990000000     0.0927907  
H31      H      0.604290000000     0.769580000000     0.289440000000     0.0317896  
H32      H      0.604460000000     0.768810000000     0.231560000000     0.0382768  
H33      H      0.743720000000     0.861230000000     0.230960000000     0.0487437  
H34      H      0.754730000000     0.880810000000     0.316170000000     0.107373   
H35      H      0.781090000000     0.890080000000     0.278780000000     0.0865873  
H36      H      0.594570000000     0.815710000000     0.980370000000     0.03526    
H37      H      0.591230000000     0.816380000000     0.038230000000     0.0368443  
H38      H      0.730130000000     0.910180000000     0.042160000000     0.048561   
H39      H      0.744780000000     0.922460000000     0.455800000000     0.10515    
H40      H      0.769880000000     0.938060000000     0.994140000000     0.087493   
H41      H      0.788160000000     0.830220000000     0.107270000000     0.0369855  
H42      H      0.827040000000     0.794800000000     0.087660000000     0.0368125  
H43      H      0.704920000000     0.673600000000     0.076030000000     0.0507812  
H44      H      0.634610000000     0.720760000000     0.085670000000     0.110554   
H45      H      0.638450000000     0.672950000000     0.080870000000     0.0915005  
H46      H      0.507750000000     0.885670000000     0.189820000000     0.0369305  
H47      H      0.543110000000     0.850060000000     0.164790000000     0.0383324  
H48      H      0.670010000000     0.965510000000     0.177970000000     0.0500197  
H49      H      0.675580000000     0.024030000000     0.208530000000     0.0919921  
H50      H      0.630420000000     0.021910000000     0.229220000000     0.11047    
H51      H      0.075430000000     0.559740000000     0.325180000000     0.035988   
H52      H      0.074270000000     0.554580000000     0.383110000000     0.0352227  
H53      H      0.935030000000     0.506580000000     0.383590000000     0.0454978  
H54      H      0.932700000000     0.542140000000     0.302500000000     0.108221   
H55      H      0.902580000000     0.516820000000     0.337600000000     0.0852536  
H56      H      0.061510000000     0.496180000000     0.075480000000     0.0341413  
H57      H      0.061430000000     0.494650000000     0.133380000000     0.0379202  
H58      H      0.922130000000     0.447810000000     0.134180000000     0.0494225  
H59      H      0.910790000000     0.457380000000     0.049140000000     0.108393   
H60      H      0.884600000000     0.439740000000     0.086530000000     0.0878847  
H61      H      0.963610000000     0.666910000000     0.030140000000     0.0370464  
H62      H      0.001530000000     0.628180000000     0.012480000000     0.0388932  
H63      H      0.876900000000     0.515100000000     0.488570000000     0.0482149  
H64      H      0.814000000000     0.570770000000     0.996210000000     0.104611   
H65      H      0.813490000000     0.520990000000     0.487890000000     0.0856903  
H66      H      0.396570000000     0.180760000000     0.447740000000     0.0349644  
H67      H      0.397330000000     0.191300000000     0.390360000000     0.0379841  
H68      H      0.258170000000     0.098430000000     0.386110000000     0.049962   
H69      H      0.247990000000     0.069310000000     0.970570000000     0.104925   
H70      H      0.220760000000     0.060880000000     0.433040000000     0.0878805  
H71      H      0.395440000000     0.229370000000     0.138340000000     0.0342044  
H72      H      0.393890000000     0.235470000000     0.196250000000     0.0368408  
H73      H      0.253130000000     0.150970000000     0.195810000000     0.0477993  
H74      H      0.216420000000     0.118290000000     0.148730000000     0.0845821  
H75      H      0.243580000000     0.121480000000     0.112540000000     0.105952   
H76      H      0.483550000000     0.122090000000     0.250880000000     0.0382528  
H77      H      0.446400000000     0.161120000000     0.264630000000     0.0384715  
H78      H      0.324040000000     0.039880000000     0.275190000000     0.0499583  
H79      H      0.371550000000     0.968920000000     0.271550000000     0.111452   
H80      H      0.323650000000     0.973300000000     0.273350000000     0.0920824  
H81      H      0.117880000000     0.488590000000     0.446560000000     0.0362747  
H82      H      0.154710000000     0.453700000000     0.423020000000     0.0381955  
H83      H      0.038880000000     0.326690000000     0.434810000000     0.0516145  
H84      H      0.979260000000     0.366510000000     0.982760000000     0.109823   
H85      H      0.978390000000     0.321160000000     0.963350000000     0.0928318  
H86      H      0.296720000000     0.329350000000     0.367830000000     0.0349559  
H87      H      0.331110000000     0.294790000000     0.338910000000     0.0397719  
H88      H      0.207070000000     0.204660000000     0.295290000000     0.0443906  
H89      H      0.149660000000     0.219090000000     0.300780000000     0.0816836  
H90      H      0.141970000000     0.236490000000     0.335070000000     0.106187   
H91      H      0.448960000000     0.513530000000     0.370090000000     0.0335362  
H92      H      0.455570000000     0.520910000000     0.312560000000     0.0376512  
H93      H      0.506520000000     0.431960000000     0.309330000000     0.0490123  
H94      H      0.493560000000     0.408160000000     0.394890000000     0.10406    
H95      H      0.510920000000     0.398380000000     0.357250000000     0.0881054  
H96      H      0.487090000000     0.553020000000     0.121140000000     0.0345367  
H97      H      0.480810000000     0.549710000000     0.063420000000     0.0374306  
H98      H      0.575200000000     0.505460000000     0.057890000000     0.0492882  
H99      H      0.598570000000     0.515220000000     0.143290000000     0.100168   
H100     H      0.609560000000     0.500620000000     0.105050000000     0.0862781  
H101     H      0.838650000000     0.238440000000     0.415120000000     0.0306104  
H102     H      0.840270000000     0.237320000000     0.473120000000     0.0367761  
H103     H      0.882240000000     0.141310000000     0.470420000000     0.0483364  
H104     H      0.872860000000     0.125000000000     0.384910000000     0.108197   
H105     H      0.889170000000     0.113390000000     0.421780000000     0.0869251  
H106     H      0.780340000000     0.187170000000     0.221980000000     0.0355589  
H107     H      0.780270000000     0.187730000000     0.164110000000     0.0381839  
H108     H      0.826470000000     0.094900000000     0.162630000000     0.0483725  
H109     H      0.823000000000     0.081010000000     0.249280000000     0.104255   
H110     H      0.835030000000     0.066010000000     0.211530000000     0.0874462  
H111     H      0.161560000000     0.271270000000     0.303690000000     0.0945068  
H112     H      0.160050000000     0.266670000000     0.246040000000     0.0328634  
H113     H      0.140200000000     0.377630000000     0.236010000000     0.050034   
H114     H      0.132140000000     0.393010000000     0.321240000000     0.10327    
H115     H      0.131870000000     0.411700000000     0.281740000000     0.0894037  
H116     H      0.160190000000     0.260540000000     0.047990000000     0.0315197  
H117     H      0.156420000000     0.260310000000     0.990320000000     0.0370469  
H118     H      0.240700000000     0.400830000000     0.988630000000     0.0487637  
H119     H      0.260130000000     0.411380000000     0.074770000000     0.106058   
H120     H      0.270690000000     0.438680000000     0.037210000000     0.0884779  
H121     H      0.039360000000     0.321360000000     0.123920000000     0.0388129  
H122     H      0.963800000000     0.287410000000     0.105260000000     0.0401768  
H123     H      0.965680000000     0.168680000000     0.083560000000     0.0494355  
H124     H      0.083470000000     0.216330000000     0.092120000000     0.105552   
H125     H      0.032080000000     0.168580000000     0.084730000000     0.0859851  
H126     H      0.378120000000     0.490310000000     0.185170000000     0.0364336  
H127     H      0.303980000000     0.451460000000     0.165390000000     0.0376991  
H128     H      0.299310000000     0.327790000000     0.179470000000     0.052286   
H129     H      0.356750000000     0.326410000000     0.207260000000     0.0936477  
H130     H      0.401030000000     0.373810000000     0.224940000000     0.109545   
H131     H      0.567950000000     0.068560000000     0.381180000000     0.0326877  
H132     H      0.567980000000     0.066980000000     0.323220000000     0.0373292  
H133     H      0.475480000000     0.928120000000     0.324420000000     0.0489484  
H134     H      0.456600000000     0.919090000000     0.409630000000     0.110436   
H135     H      0.447090000000     0.892030000000     0.372580000000     0.0883307  
H136     H      0.515830000000     0.075380000000     0.072910000000     0.0354954  
H137     H      0.518300000000     0.076620000000     0.130810000000     0.038673   
H138     H      0.426040000000     0.937560000000     0.133370000000     0.0496214  
H139     H      0.408320000000     0.926600000000     0.047200000000     0.100281   
H140     H      0.395040000000     0.899800000000     0.085050000000     0.0867009  
H141     H      0.710030000000     0.163610000000     0.027390000000     0.0361396  
H142     H      0.638620000000     0.128900000000     0.501680000000     0.0378206  
H143     H      0.621280000000     0.001260000000     0.022620000000     0.0526157  
H144     H      0.714590000000     0.041510000000     0.076370000000     0.108955   
H145     H      0.670890000000     0.995470000000     0.056880000000     0.0930906  
H146     H      0.222010000000     0.823620000000     0.232920000000     0.0346855  
H147     H      0.223490000000     0.821690000000     0.290730000000     0.0373746  
H148     H      0.172450000000     0.910400000000     0.295620000000     0.0484234  
H149     H      0.173540000000     0.926660000000     0.209410000000     0.100705   
H150     H      0.161090000000     0.939320000000     0.247840000000     0.0858255  
H151     H      0.111310000000     0.851880000000     0.044960000000     0.0348565  
H152     H      0.116400000000     0.858560000000     0.987190000000     0.0376298  
H153     H      0.163540000000     0.766590000000     0.983100000000     0.04797    
H154     H      0.153450000000     0.744380000000     0.068850000000     0.103794   
H155     H      0.168850000000     0.733380000000     0.030860000000     0.0871065  
H156     H      0.377930000000     0.006420000000     0.439790000000     0.0395375  
H157     H      0.305680000000     0.970890000000     0.414370000000     0.0390235  
H158     H      0.290370000000     0.844060000000     0.434910000000     0.0485984  
H159     H      0.378790000000     0.885120000000     0.992510000000     0.101566   
H160     H      0.336980000000     0.838760000000     0.972100000000     0.0852386  
H161     H      0.779770000000     0.604270000000     0.458330000000     0.0298105  
H162     H      0.782780000000     0.601950000000     0.400550000000     0.0370138  
H163     H      0.832970000000     0.741390000000     0.396060000000     0.0494265  
H164     H      0.825500000000     0.754820000000     0.981930000000     0.105275   
H165     H      0.840500000000     0.780650000000     0.443760000000     0.0879297  
H166     H      0.824970000000     0.605300000000     0.209150000000     0.0327211  
H167     H      0.818880000000     0.601930000000     0.151380000000     0.0365077  
H168     H      0.909850000000     0.740960000000     0.145450000000     0.0484075  
H169     H      0.930860000000     0.756160000000     0.231300000000     0.105097   
H170     H      0.941930000000     0.781180000000     0.192830000000     0.0874207  
H171     H      0.633190000000     0.632380000000     0.251030000000     0.0391635  
H172     H      0.705610000000     0.669750000000     0.276320000000     0.0403186  
H173     H      0.723930000000     0.560490000000     0.253920000000     0.0483328  
H174     H      0.677770000000     0.509100000000     0.216130000000     0.0858655  
H175     H      0.634310000000     0.512540000000     0.197000000000     0.101537   
H176     H      0.045550000000     0.833780000000     0.352210000000     0.0358842  
H177     H      0.973630000000     0.798080000000     0.328100000000     0.0371468  
H178     H      0.961160000000     0.671430000000     0.344890000000     0.0509092  
H179     H      0.057750000000     0.712660000000     0.395670000000     0.109228   
H180     H      0.013950000000     0.666580000000     0.376320000000     0.0918822  
H181     H      0.826870000000     0.040460000000     0.839140000000     0.033144   
H182     H      0.790740000000     0.964940000000     0.856130000000     0.0327315  
H183     H      0.669830000000     0.965970000000     0.870740000000     0.0515722  
H184     H      0.718870000000     0.083890000000     0.867140000000     0.109669   
H185     H      0.670290000000     0.032410000000     0.870000000000     0.0911306  
H186     H      0.960970000000     0.298530000000     0.778030000000     0.0396804  
H187     H      0.997160000000     0.371640000000     0.754230000000     0.038097   
H188     H      0.886290000000     0.386630000000     0.778810000000     0.0494507  
H189     H      0.835160000000     0.338530000000     0.815880000000     0.0869924  
H190     H      0.840050000000     0.295770000000     0.834440000000     0.106368   
H191     H      0.158190000000     0.709730000000     0.676030000000     0.0358094  
H192     H      0.123080000000     0.637910000000     0.700150000000     0.0381156  
H193     H      0.995690000000     0.625640000000     0.686350000000     0.05135    
H194     H      0.989810000000     0.678420000000     0.655830000000     0.0922933  
H195     H      0.035190000000     0.721970000000     0.635740000000     0.108581   
H196     H      0.667930000000     0.707470000000     0.921290000000     0.0393559  
H197     H      0.631610000000     0.633340000000     0.943260000000     0.0393072  
H198     H      0.505120000000     0.618190000000     0.920390000000     0.0486635  
H199     H      0.501400000000     0.667620000000     0.885130000000     0.0866972  
H200     H      0.548810000000     0.711440000000     0.867080000000     0.106542   
H201     H      0.287920000000     0.958150000000     0.597230000000     0.03896    
H202     H      0.323020000000     0.028250000000     0.569230000000     0.0401864  
H203     H      0.211030000000     0.043710000000     0.588680000000     0.0440595  
H204     H      0.160530000000     0.999540000000     0.627520000000     0.0837311  
H205     H      0.166320000000     0.959580000000     0.649550000000     0.102091   
H206     H      0.491450000000     0.370160000000     0.500940000000     0.0359098  
H207     H      0.453680000000     0.296200000000     0.521410000000     0.038365   
H208     H      0.328290000000     0.285780000000     0.501400000000     0.0522934  
H209     H      0.373550000000     0.386570000000     0.955280000000     0.108388   
H210     H      0.325970000000     0.341340000000     0.971990000000     0.0927702  
H211     H      0.604290000000     0.769580000000     0.789440000000     0.0317883  
H212     H      0.604460000000     0.768810000000     0.731560000000     0.0382795  
H213     H      0.743720000000     0.861220000000     0.730950000000     0.048772   
H214     H      0.754730000000     0.880810000000     0.816170000000     0.107381   
H215     H      0.781100000000     0.890080000000     0.778780000000     0.0865515  
H216     H      0.594570000000     0.815710000000     0.480370000000     0.0352506  
H217     H      0.591230000000     0.816380000000     0.538230000000     0.0368658  
H218     H      0.730130000000     0.910190000000     0.542160000000     0.0485718  
H219     H      0.744780000000     0.922470000000     0.955800000000     0.105135   
H220     H      0.769880000000     0.938060000000     0.494150000000     0.0874773  
H221     H      0.788160000000     0.830230000000     0.607270000000     0.0369865  
H222     H      0.827040000000     0.794810000000     0.587660000000     0.0368075  
H223     H      0.704920000000     0.673600000000     0.576040000000     0.0507736  
H224     H      0.634610000000     0.720760000000     0.585670000000     0.110548   
H225     H      0.638450000000     0.672950000000     0.580860000000     0.0914759  
H226     H      0.507750000000     0.885670000000     0.689820000000     0.0369397  
H227     H      0.543110000000     0.850060000000     0.664790000000     0.038322   
H228     H      0.670010000000     0.965510000000     0.677980000000     0.0500089  
H229     H      0.675580000000     0.024030000000     0.708530000000     0.0919946  
H230     H      0.630420000000     0.021910000000     0.729220000000     0.110465   
H231     H      0.075430000000     0.559740000000     0.825180000000     0.0360055  
H232     H      0.074270000000     0.554580000000     0.883110000000     0.0352134  
H233     H      0.935030000000     0.506580000000     0.883590000000     0.0454619  
H234     H      0.932710000000     0.542140000000     0.802500000000     0.108242   
H235     H      0.902580000000     0.516820000000     0.837600000000     0.0852548  
H236     H      0.061520000000     0.496190000000     0.575480000000     0.0341255  
H237     H      0.061430000000     0.494650000000     0.633370000000     0.0379112  
H238     H      0.922130000000     0.447810000000     0.634180000000     0.0493759  
H239     H      0.910790000000     0.457380000000     0.549140000000     0.108358   
H240     H      0.884600000000     0.439740000000     0.586530000000     0.0879132  
H241     H      0.963610000000     0.666900000000     0.530140000000     0.0370348  
H242     H      0.001530000000     0.628180000000     0.512480000000     0.0388628  
H243     H      0.876900000000     0.515100000000     0.988570000000     0.0482391  
H244     H      0.814000000000     0.570760000000     0.496210000000     0.104684   
H245     H      0.813490000000     0.520990000000     0.987890000000     0.0856772  
H246     H      0.396570000000     0.180750000000     0.947740000000     0.0349648  
H247     H      0.397330000000     0.191300000000     0.890360000000     0.0379595  
H248     H      0.258170000000     0.098430000000     0.886110000000     0.0499563  
H249     H      0.247990000000     0.069310000000     0.470570000000     0.10494    
H250     H      0.220760000000     0.060880000000     0.933040000000     0.087915   
H251     H      0.395440000000     0.229370000000     0.638340000000     0.0342082  
H252     H      0.393890000000     0.235470000000     0.696250000000     0.0368569  
H253     H      0.253130000000     0.150960000000     0.695810000000     0.0477847  
H254     H      0.216420000000     0.118290000000     0.648730000000     0.0846293  
H255     H      0.243580000000     0.121480000000     0.612540000000     0.105971   
H256     H      0.483540000000     0.122090000000     0.750880000000     0.0382572  
H257     H      0.446400000000     0.161110000000     0.764630000000     0.0384714  
H258     H      0.324040000000     0.039880000000     0.775190000000     0.0499605  
H259     H      0.371550000000     0.968910000000     0.771550000000     0.111396   
H260     H      0.323650000000     0.973300000000     0.773350000000     0.0920753  
H261     H      0.117880000000     0.488580000000     0.946560000000     0.0362832  
H262     H      0.154710000000     0.453700000000     0.923020000000     0.0381564  
H263     H      0.038880000000     0.326690000000     0.934810000000     0.051604   
H264     H      0.979260000000     0.366510000000     0.482760000000     0.109814   
H265     H      0.978400000000     0.321160000000     0.463350000000     0.0928414  
H266     H      0.296720000000     0.329350000000     0.867830000000     0.0349539  
H267     H      0.331100000000     0.294790000000     0.838910000000     0.0397772  
H268     H      0.207070000000     0.204650000000     0.795290000000     0.0444221  
H269     H      0.149660000000     0.219080000000     0.800780000000     0.0816422  
H270     H      0.141970000000     0.236480000000     0.835070000000     0.106182   
H271     H      0.448960000000     0.513530000000     0.870090000000     0.0335341  
H272     H      0.455570000000     0.520910000000     0.812560000000     0.0376664  
H273     H      0.506520000000     0.431960000000     0.809330000000     0.0490197  
H274     H      0.493560000000     0.408160000000     0.894890000000     0.104042   
H275     H      0.510920000000     0.398380000000     0.857250000000     0.0880981  
H276     H      0.487090000000     0.553020000000     0.621140000000     0.0345337  
H277     H      0.480800000000     0.549720000000     0.563420000000     0.0374351  
H278     H      0.575200000000     0.505460000000     0.557890000000     0.0492838  
H279     H      0.598570000000     0.515220000000     0.643290000000     0.100172   
H280     H      0.609560000000     0.500620000000     0.605050000000     0.0862438  
H281     H      0.838650000000     0.238450000000     0.915120000000     0.0306007  
H282     H      0.840270000000     0.237320000000     0.973120000000     0.0367485  
H283     H      0.882240000000     0.141310000000     0.970420000000     0.0483585  
H284     H      0.872860000000     0.125000000000     0.884910000000     0.108123   
H285     H      0.889170000000     0.113390000000     0.921780000000     0.0869506  
H286     H      0.780340000000     0.187170000000     0.721980000000     0.0355651  
H287     H      0.780270000000     0.187730000000     0.664110000000     0.0381845  
H288     H      0.826480000000     0.094900000000     0.662630000000     0.0483613  
H289     H      0.823000000000     0.081010000000     0.749280000000     0.104253   
H290     H      0.835040000000     0.066010000000     0.711530000000     0.0874102  
H291     H      0.161560000000     0.271270000000     0.803690000000     0.0945008  
H292     H      0.160050000000     0.266670000000     0.746030000000     0.0328985  
H293     H      0.140200000000     0.377630000000     0.736010000000     0.0500587  
H294     H      0.132130000000     0.393000000000     0.821240000000     0.103274   
H295     H      0.131870000000     0.411690000000     0.781740000000     0.0894036  
H296     H      0.160200000000     0.260540000000     0.547990000000     0.0315001  
H297     H      0.156430000000     0.260310000000     0.490320000000     0.0371219  
H298     H      0.240700000000     0.400830000000     0.488630000000     0.0488346  
H299     H      0.260130000000     0.411380000000     0.574770000000     0.106056   
H300     H      0.270690000000     0.438680000000     0.537210000000     0.0884639  
H301     H      0.039360000000     0.321360000000     0.623920000000     0.0388236  
H302     H      0.963790000000     0.287410000000     0.605270000000     0.0401759  
H303     H      0.965680000000     0.168680000000     0.583560000000     0.0494225  
H304     H      0.083470000000     0.216330000000     0.592120000000     0.105538   
H305     H      0.032080000000     0.168580000000     0.584730000000     0.0859792  
H306     H      0.378120000000     0.490300000000     0.685170000000     0.0364375  
H307     H      0.303980000000     0.451460000000     0.665390000000     0.0376974  
H308     H      0.299310000000     0.327790000000     0.679470000000     0.0522813  
H309     H      0.356750000000     0.326410000000     0.707260000000     0.0936466  
H310     H      0.401030000000     0.373810000000     0.724940000000     0.109543   
H311     H      0.567950000000     0.068560000000     0.881180000000     0.0326853  
H312     H      0.567980000000     0.066980000000     0.823220000000     0.0373281  
H313     H      0.475480000000     0.928120000000     0.824420000000     0.0489464  
H314     H      0.456600000000     0.919080000000     0.909630000000     0.110494   
H315     H      0.447090000000     0.892020000000     0.872580000000     0.0882536  
H316     H      0.515830000000     0.075370000000     0.572910000000     0.0354801  
H317     H      0.518300000000     0.076620000000     0.630810000000     0.0386742  
H318     H      0.426040000000     0.937560000000     0.633370000000     0.0496292  
H319     H      0.408320000000     0.926600000000     0.547200000000     0.100267   
H320     H      0.395040000000     0.899800000000     0.585050000000     0.0866937  
H321     H      0.710030000000     0.163610000000     0.527390000000     0.0361071  
H322     H      0.638610000000     0.128900000000     0.001680000000     0.0378186  
H323     H      0.621280000000     0.001260000000     0.522620000000     0.052575   
H324     H      0.714600000000     0.041510000000     0.576360000000     0.108937   
H325     H      0.670890000000     0.995460000000     0.556880000000     0.0930508  
H326     H      0.222010000000     0.823620000000     0.732920000000     0.034684   
H327     H      0.223490000000     0.821690000000     0.790720000000     0.037369   
H328     H      0.172450000000     0.910390000000     0.795620000000     0.0484402  
H329     H      0.173550000000     0.926660000000     0.709410000000     0.100793   
H330     H      0.161090000000     0.939310000000     0.747830000000     0.085884   
H331     H      0.111310000000     0.851880000000     0.544960000000     0.0348431  
H332     H      0.116400000000     0.858560000000     0.487190000000     0.0376366  
H333     H      0.163540000000     0.766590000000     0.483100000000     0.0479958  
H334     H      0.153450000000     0.744380000000     0.568850000000     0.103795   
H335     H      0.168850000000     0.733390000000     0.530860000000     0.0871355  
H336     H      0.377930000000     0.006420000000     0.939790000000     0.0395513  
H337     H      0.305680000000     0.970880000000     0.914370000000     0.0390253  
H338     H      0.290370000000     0.844060000000     0.934910000000     0.0486032  
H339     H      0.378790000000     0.885120000000     0.492510000000     0.101618   
H340     H      0.336980000000     0.838760000000     0.472090000000     0.0852436  
H341     H      0.779770000000     0.604270000000     0.958330000000     0.0298092  
H342     H      0.782780000000     0.601960000000     0.900550000000     0.0369936  
H343     H      0.832970000000     0.741390000000     0.896060000000     0.0494063  
H344     H      0.825500000000     0.754810000000     0.481920000000     0.105365   
H345     H      0.840500000000     0.780650000000     0.943760000000     0.0879568  
H346     H      0.824970000000     0.605310000000     0.709150000000     0.0327211  
H347     H      0.818880000000     0.601930000000     0.651380000000     0.0365217  
H348     H      0.909850000000     0.740960000000     0.645450000000     0.0484198  
H349     H      0.930860000000     0.756160000000     0.731300000000     0.105026   
H350     H      0.941930000000     0.781180000000     0.692820000000     0.0874158  
H351     H      0.633190000000     0.632380000000     0.751030000000     0.039169   
H352     H      0.705610000000     0.669760000000     0.776320000000     0.0403063  
H353     H      0.723930000000     0.560490000000     0.753920000000     0.0483296  
H354     H      0.677770000000     0.509110000000     0.716130000000     0.0858654  
H355     H      0.634320000000     0.512540000000     0.697000000000     0.101571   
H356     H      0.045550000000     0.833780000000     0.852200000000     0.0359038  
H357     H      0.973620000000     0.798080000000     0.828100000000     0.0371351  
H358     H      0.961150000000     0.671430000000     0.844890000000     0.0509077  
H359     H      0.057750000000     0.712670000000     0.895670000000     0.10923    
H360     H      0.013950000000     0.666580000000     0.876320000000     0.0918848  
N1       N      0.727270000000     0.959670000000     0.363960000000    -0.174684   
N2       N      0.770060000000     0.049120000000     0.345700000000    -0.199489   
N3       N      0.703830000000     0.049880000000     0.363350000000    -0.210974   
N4       N      0.943290000000     0.383470000000     0.263390000000    -0.172926   
N5       N      0.902520000000     0.300120000000     0.293120000000    -0.198516   
N6       N      0.849520000000     0.318330000000     0.315520000000    -0.210125   
N7       N      0.056680000000     0.626700000000     0.195750000000    -0.172394   
N8       N      0.097690000000     0.710630000000     0.166530000000    -0.198693   
N9       N      0.024370000000     0.697390000000     0.153280000000    -0.211464   
N10      N      0.565670000000     0.621320000000     0.434860000000    -0.173266   
N11      N      0.607490000000     0.705920000000     0.407220000000    -0.199173   
N12      N      0.535980000000     0.688060000000     0.385500000000    -0.21035    
N13      N      0.268760000000     0.040260000000     0.075790000000    -0.173324   
N14      N      0.229220000000     0.960480000000     0.110450000000    -0.198533   
N15      N      0.175410000000     0.979870000000     0.129290000000    -0.20972    
N16      N      0.388030000000     0.285760000000     0.013590000000    -0.172927   
N17      N      0.432170000000     0.372030000000     0.988730000000    -0.199873   
N18      N      0.360700000000     0.360400000000     0.471620000000    -0.21161    
N19      N      0.673980000000     0.816080000000     0.227110000000    -0.173289   
N20      N      0.673890000000     0.816510000000     0.294110000000    -0.200562   
N21      N      0.751980000000     0.871630000000     0.292130000000    -0.213159   
N22      N      0.660880000000     0.861790000000     0.044420000000    -0.173776   
N23      N      0.665060000000     0.860040000000     0.977700000000    -0.200832   
N24      N      0.741690000000     0.917200000000     0.980570000000    -0.212319   
N25      N      0.768870000000     0.731230000000     0.081010000000    -0.173053   
N26      N      0.722430000000     0.773270000000     0.102600000000    -0.197493   
N27      N      0.654570000000     0.706420000000     0.087470000000    -0.211152   
N28      N      0.609330000000     0.905390000000     0.168940000000    -0.172147   
N29      N      0.567830000000     0.947370000000     0.199330000000    -0.197646   
N30      N      0.641070000000     0.008140000000     0.211570000000    -0.21163    
N31      N      0.003920000000     0.527360000000     0.386940000000    -0.174316   
N32      N      0.005610000000     0.536930000000     0.320320000000    -0.198778   
N33      N      0.931550000000     0.526730000000     0.324210000000    -0.211094   
N34      N      0.991930000000     0.472440000000     0.137960000000    -0.17284    
N35      N      0.991880000000     0.473780000000     0.070830000000    -0.199828   
N36      N      0.913700000000     0.450660000000     0.073090000000    -0.213158   
N37      N      0.941860000000     0.568080000000     0.000380000000    -0.17279    
N38      N      0.897980000000     0.613260000000     0.019850000000    -0.199043   
N39      N      0.830790000000     0.552990000000     0.997530000000    -0.211233   
N40      N      0.327310000000     0.147330000000     0.384270000000    -0.172573   
N41      N      0.326290000000     0.135580000000     0.450550000000    -0.200797   
N42      N      0.249670000000     0.079090000000     0.446660000000    -0.211714   
N43      N      0.323430000000     0.192630000000     0.200130000000    -0.174147   
N44      N      0.325120000000     0.185840000000     0.133510000000    -0.20034    
N45      N      0.246090000000     0.133960000000     0.135620000000    -0.212555   
N46      N      0.382080000000     0.103380000000     0.270520000000    -0.172555   
N47      N      0.426420000000     0.056480000000     0.255330000000    -0.196653   
N48      N      0.357740000000     0.989130000000     0.268420000000    -0.211614   
N49      N      0.099210000000     0.387440000000     0.426480000000    -0.172721   
N50      N      0.055710000000     0.428520000000     0.454810000000    -0.198645   
N51      N      0.994140000000     0.355590000000     0.966170000000    -0.211832   
N52      N      0.270490000000     0.244650000000     0.317310000000    -0.171837   
N53      N      0.231200000000     0.285750000000     0.349730000000    -0.202304   
N54      N      0.165190000000     0.246080000000     0.316550000000    -0.245941   
N55      N      0.483730000000     0.478720000000     0.307010000000    -0.173752   
N56      N      0.476950000000     0.470910000000     0.373480000000    -0.201616   
N57      N      0.499960000000     0.416520000000     0.370620000000    -0.212038   
N58      N      0.525980000000     0.525330000000     0.056560000000    -0.173494   
N59      N      0.532620000000     0.528250000000     0.123270000000    -0.201119   
N60      N      0.590150000000     0.509460000000     0.119010000000    -0.211498   
N61      N      0.860380000000     0.188330000000     0.475860000000    -0.173926   
N62      N      0.859450000000     0.190400000000     0.408920000000    -0.201038   
N63      N      0.879530000000     0.133150000000     0.409080000000    -0.213341   
N64      N      0.805680000000     0.143130000000     0.159270000000    -0.173846   
N65      N      0.806870000000     0.143370000000     0.226020000000    -0.201195   
N66      N      0.826730000000     0.086540000000     0.224540000000    -0.212258   
N67      N      0.149910000000     0.321630000000     0.236810000000    -0.174092   
N68      N      0.148150000000     0.328290000000     0.303370000000    -0.196413   
N69      N      0.135680000000     0.389640000000     0.296670000000    -0.212846   
N70      N      0.196430000000     0.330890000000     0.985420000000    -0.173625   
N71      N      0.200090000000     0.331330000000     0.052260000000    -0.200638   
N72      N      0.252670000000     0.409340000000     0.050330000000    -0.211883   
N73      N      0.958740000000     0.225120000000     0.093760000000    -0.173021   
N74      N      0.047370000000     0.265000000000     0.114310000000    -0.198944   
N75      N      0.048970000000     0.200990000000     0.093680000000    -0.211303   
N76      N      0.296490000000     0.386680000000     0.170300000000    -0.174145   
N77      N      0.383040000000     0.432030000000     0.194460000000    -0.200612   
N78      N      0.374690000000     0.361040000000     0.208670000000    -0.211453   
N79      N      0.520700000000     0.997530000000     0.319670000000    -0.173449   
N80      N      0.521220000000     0.999240000000     0.386740000000    -0.200211   
N81      N      0.465730000000     0.921330000000     0.385610000000    -0.213364   
N82      N      0.474210000000     0.006680000000     0.136220000000    -0.173066   
N83      N      0.471960000000     0.005070000000     0.069430000000    -0.200989   
N84      N      0.415040000000     0.928530000000     0.071770000000    -0.21146    
N85      N      0.625040000000     0.062410000000     0.009500000000    -0.172587   
N86      N      0.707720000000     0.102730000000     0.040550000000    -0.199576   
N87      N      0.690870000000     0.029980000000     0.058110000000    -0.211246   
N88      N      0.196180000000     0.864350000000     0.297410000000    -0.17282    
N89      N      0.193320000000     0.865730000000     0.230390000000    -0.199684   
N90      N      0.170330000000     0.920130000000     0.234030000000    -0.211623   
N91      N      0.142360000000     0.814630000000     0.981080000000    -0.172945   
N92      N      0.137600000000     0.807790000000     0.047860000000    -0.200478   
N93      N      0.158960000000     0.752220000000     0.044460000000    -0.212128   
N94      N      0.293790000000     0.904940000000     0.421470000000    -0.173712   
N95      N      0.375850000000     0.945670000000     0.453060000000    -0.200088   
N96      N      0.357040000000     0.873280000000     0.973020000000    -0.210226   
N97      N      0.810050000000     0.671880000000     0.394110000000    -0.171865   
N98      N      0.807820000000     0.674840000000     0.461190000000    -0.199589   
N99      N      0.830470000000     0.752030000000     0.457510000000    -0.211892   
N100     N      0.862490000000     0.671560000000     0.144240000000    -0.172186   
N101     N      0.868540000000     0.675790000000     0.211240000000    -0.199507   
N102     N      0.923260000000     0.752860000000     0.206850000000    -0.212129   
N103     N      0.718680000000     0.616540000000     0.268550000000    -0.173767   
N104     N      0.636700000000     0.574650000000     0.237290000000    -0.200388   
N105     N      0.656900000000     0.522740000000     0.215990000000    -0.209764   
N106     N      0.962410000000     0.732040000000     0.334070000000    -0.173833   
N107     N      0.046170000000     0.773630000000     0.363160000000    -0.200193   
N108     N      0.032990000000     0.701120000000     0.378160000000    -0.21133    
N109     N      0.727270000000     0.959660000000     0.863950000000    -0.174666   
N110     N      0.770060000000     0.049120000000     0.845700000000    -0.199501   
N111     N      0.703830000000     0.049880000000     0.863350000000    -0.211006   
N112     N      0.943290000000     0.383470000000     0.763390000000    -0.172892   
N113     N      0.902520000000     0.300120000000     0.793120000000    -0.198543   
N114     N      0.849530000000     0.318330000000     0.815520000000    -0.210187   
N115     N      0.056680000000     0.626700000000     0.695750000000    -0.172443   
N116     N      0.097690000000     0.710640000000     0.666530000000    -0.198826   
N117     N      0.024370000000     0.697390000000     0.653280000000    -0.211447   
N118     N      0.565670000000     0.621320000000     0.934870000000    -0.1733     
N119     N      0.607500000000     0.705920000000     0.907220000000    -0.19914    
N120     N      0.535980000000     0.688070000000     0.885500000000    -0.210449   
N121     N      0.268760000000     0.040260000000     0.575790000000    -0.17333    
N122     N      0.229220000000     0.960480000000     0.610450000000    -0.198535   
N123     N      0.175410000000     0.979870000000     0.629290000000    -0.209749   
N124     N      0.388030000000     0.285760000000     0.513590000000    -0.172926   
N125     N      0.432170000000     0.372030000000     0.488730000000    -0.199875   
N126     N      0.360700000000     0.360400000000     0.971620000000    -0.211581   
N127     N      0.673980000000     0.816080000000     0.727110000000    -0.173273   
N128     N      0.673890000000     0.816510000000     0.794110000000    -0.200495   
N129     N      0.751980000000     0.871630000000     0.792130000000    -0.213128   
N130     N      0.660880000000     0.861790000000     0.544430000000    -0.173805   
N131     N      0.665060000000     0.860050000000     0.477710000000    -0.200776   
N132     N      0.741690000000     0.917200000000     0.480570000000    -0.212294   
N133     N      0.768870000000     0.731220000000     0.581010000000    -0.173146   
N134     N      0.722430000000     0.773270000000     0.602600000000    -0.197461   
N135     N      0.654570000000     0.706420000000     0.587470000000    -0.21113    
N136     N      0.609330000000     0.905380000000     0.668940000000    -0.172244   
N137     N      0.567830000000     0.947370000000     0.699330000000    -0.197639   
N138     N      0.641070000000     0.008140000000     0.711570000000    -0.211628   
N139     N      0.003920000000     0.527360000000     0.886940000000    -0.17434    
N140     N      0.005610000000     0.536930000000     0.820320000000    -0.198777   
N141     N      0.931550000000     0.526730000000     0.824210000000    -0.211107   
N142     N      0.991930000000     0.472440000000     0.637960000000    -0.172869   
N143     N      0.991890000000     0.473780000000     0.570830000000    -0.199849   
N144     N      0.913690000000     0.450650000000     0.573090000000    -0.213144   
N145     N      0.941860000000     0.568080000000     0.500380000000    -0.172886   
N146     N      0.897980000000     0.613260000000     0.519850000000    -0.199039   
N147     N      0.830790000000     0.552990000000     0.497530000000    -0.211239   
N148     N      0.327310000000     0.147330000000     0.884270000000    -0.172592   
N149     N      0.326290000000     0.135580000000     0.950550000000    -0.200774   
N150     N      0.249660000000     0.079090000000     0.946660000000    -0.211719   
N151     N      0.323420000000     0.192630000000     0.700130000000    -0.174142   
N152     N      0.325120000000     0.185840000000     0.633510000000    -0.200246   
N153     N      0.246080000000     0.133950000000     0.635620000000    -0.212578   
N154     N      0.382080000000     0.103380000000     0.770520000000    -0.172545   
N155     N      0.426410000000     0.056480000000     0.755330000000    -0.196569   
N156     N      0.357740000000     0.989130000000     0.768420000000    -0.211558   
N157     N      0.099210000000     0.387440000000     0.926480000000    -0.172779   
N158     N      0.055710000000     0.428520000000     0.954810000000    -0.198615   
N159     N      0.994150000000     0.355590000000     0.466170000000    -0.211825   
N160     N      0.270490000000     0.244650000000     0.817310000000    -0.171813   
N161     N      0.231200000000     0.285750000000     0.849730000000    -0.202297   
N162     N      0.165190000000     0.246080000000     0.816550000000    -0.245912   
N163     N      0.483730000000     0.478720000000     0.807010000000    -0.173735   
N164     N      0.476950000000     0.470910000000     0.873480000000    -0.201608   
N165     N      0.499960000000     0.416520000000     0.870620000000    -0.21201    
N166     N      0.525980000000     0.525330000000     0.556560000000    -0.173445   
N167     N      0.532620000000     0.528250000000     0.623270000000    -0.201119   
N168     N      0.590150000000     0.509470000000     0.619010000000    -0.211517   
N169     N      0.860370000000     0.188330000000     0.975860000000    -0.173949   
N170     N      0.859450000000     0.190400000000     0.908920000000    -0.201061   
N171     N      0.879530000000     0.133150000000     0.909090000000    -0.213339   
N172     N      0.805680000000     0.143130000000     0.659270000000    -0.173829   
N173     N      0.806870000000     0.143370000000     0.726030000000    -0.201237   
N174     N      0.826730000000     0.086540000000     0.724540000000    -0.212231   
N175     N      0.149910000000     0.321630000000     0.736810000000    -0.174048   
N176     N      0.148150000000     0.328290000000     0.803370000000    -0.196445   
N177     N      0.135680000000     0.389630000000     0.796670000000    -0.212876   
N178     N      0.196430000000     0.330890000000     0.485420000000    -0.173533   
N179     N      0.200090000000     0.331330000000     0.552260000000    -0.200655   
N180     N      0.252670000000     0.409340000000     0.550330000000    -0.211893   
N181     N      0.958750000000     0.225120000000     0.593750000000    -0.172993   
N182     N      0.047380000000     0.265000000000     0.614310000000    -0.198979   
N183     N      0.048970000000     0.200990000000     0.593680000000    -0.211302   
N184     N      0.296490000000     0.386680000000     0.670300000000    -0.174147   
N185     N      0.383040000000     0.432030000000     0.694460000000    -0.200627   
N186     N      0.374690000000     0.361040000000     0.708670000000    -0.211477   
N187     N      0.520700000000     0.997530000000     0.819670000000    -0.17345    
N188     N      0.521220000000     0.999240000000     0.886740000000    -0.200188   
N189     N      0.465730000000     0.921330000000     0.885620000000    -0.21334    
N190     N      0.474210000000     0.006680000000     0.636220000000    -0.173039   
N191     N      0.471950000000     0.005070000000     0.569430000000    -0.200993   
N192     N      0.415040000000     0.928530000000     0.571770000000    -0.211454   
N193     N      0.625050000000     0.062400000000     0.509500000000    -0.172585   
N194     N      0.707720000000     0.102730000000     0.540550000000    -0.199617   
N195     N      0.690860000000     0.029980000000     0.558110000000    -0.211263   
N196     N      0.196180000000     0.864350000000     0.797410000000    -0.172805   
N197     N      0.193320000000     0.865730000000     0.730390000000    -0.199677   
N198     N      0.170330000000     0.920130000000     0.734020000000    -0.211719   
N199     N      0.142360000000     0.814630000000     0.481080000000    -0.172901   
N200     N      0.137600000000     0.807790000000     0.547860000000    -0.200494   
N201     N      0.158960000000     0.752220000000     0.544460000000    -0.212171   
N202     N      0.293790000000     0.904940000000     0.921470000000    -0.173704   
N203     N      0.375850000000     0.945670000000     0.953060000000    -0.200081   
N204     N      0.357050000000     0.873280000000     0.473020000000    -0.210226   
N205     N      0.810050000000     0.671880000000     0.894110000000    -0.171898   
N206     N      0.807820000000     0.674840000000     0.961190000000    -0.199545   
N207     N      0.830470000000     0.752040000000     0.957510000000    -0.211825   
N208     N      0.862480000000     0.671560000000     0.644240000000    -0.172153   
N209     N      0.868540000000     0.675790000000     0.711240000000    -0.199515   
N210     N      0.923260000000     0.752860000000     0.706840000000    -0.212082   
N211     N      0.718680000000     0.616540000000     0.768550000000    -0.173813   
N212     N      0.636700000000     0.574650000000     0.737290000000    -0.200395   
N213     N      0.656900000000     0.522750000000     0.715990000000    -0.209826   
N214     N      0.962410000000     0.732040000000     0.834070000000    -0.17386    
N215     N      0.046170000000     0.773630000000     0.863160000000    -0.20017    
N216     N      0.032990000000     0.701120000000     0.878160000000    -0.211335   
Ni1      Ni     0.836860000000     0.638900000000     0.305430000000     1.00698    
Ni2      Ni     0.842460000000     0.709580000000     0.299850000000     0.997896   
Ni3      Ni     0.174290000000     0.808250000000     0.387050000000     1.00971    
Ni4      Ni     0.168630000000     0.873330000000     0.392060000000     0.997478   
Ni5      Ni     0.498710000000     0.969530000000     0.982180000000     1.01526    
Ni6      Ni     0.504900000000     0.040210000000     0.975200000000     0.994108   
Ni7      Ni     0.170250000000     0.290140000000     0.145890000000     0.996296   
Ni8      Ni     0.172770000000     0.359530000000     0.142110000000     1.01451    
Ni9      Ni     0.833980000000     0.131570000000     0.065290000000     1.01307    
Ni10     Ni     0.832380000000     0.198890000000     0.069830000000     0.997993   
Ni11     Ni     0.513940000000     0.472340000000     0.212660000000     1.01452    
Ni12     Ni     0.505900000000     0.536000000000     0.218000000000     1.00733    
Ni13     Ni     0.199580000000     0.369880000000     0.391910000000     1.01623    
Ni14     Ni     0.136480000000     0.297400000000     0.397210000000     1.00933    
Ni15     Ni     0.360770000000     0.205150000000     0.294800000000     1.00424    
Ni16     Ni     0.288890000000     0.141210000000     0.290420000000     0.993267   
Ni17     Ni     0.034900000000     0.530100000000     0.982250000000     0.997565   
Ni18     Ni     0.963360000000     0.466750000000     0.974570000000     1.00049    
Ni19     Ni     0.701630000000     0.872140000000     0.137610000000     1.00007    
Ni20     Ni     0.630570000000     0.807130000000     0.134390000000     1.00025    
Ni21     Ni     0.867740000000     0.708030000000     0.049810000000     0.990094   
Ni22     Ni     0.802370000000     0.637580000000     0.055550000000     0.99986    
Ni23     Ni     0.529590000000     0.037840000000     0.226110000000     0.996699   
Ni24     Ni     0.465640000000     0.966220000000     0.229620000000     1.00208    
Ni25     Ni     0.292410000000     0.159320000000     0.038990000000     1.01169    
Ni26     Ni     0.362750000000     0.163950000000     0.045180000000     0.995773   
Ni27     Ni     0.468170000000     0.500960000000     0.967280000000     1.00824    
Ni28     Ni     0.533560000000     0.495430000000     0.962610000000     1.00368    
Ni29     Ni     0.131790000000     0.838590000000     0.142200000000     0.998809   
Ni30     Ni     0.196960000000     0.833120000000     0.136250000000     0.995956   
Ni31     Ni     0.964260000000     0.501760000000     0.227110000000     1.01162    
Ni32     Ni     0.035260000000     0.507510000000     0.230930000000     0.987822   
Ni33     Ni     0.803700000000     0.176170000000     0.320050000000     1.00802    
Ni34     Ni     0.868830000000     0.170780000000     0.313580000000     0.998169   
Ni35     Ni     0.632460000000     0.830770000000     0.383010000000     1.01383    
Ni36     Ni     0.702990000000     0.836020000000     0.389960000000     0.99596    
Ni37     Ni     0.836860000000     0.638900000000     0.805430000000     1.00716    
Ni38     Ni     0.842460000000     0.709580000000     0.799850000000     0.997905   
Ni39     Ni     0.174290000000     0.808250000000     0.887050000000     1.00974    
Ni40     Ni     0.168620000000     0.873320000000     0.892060000000     0.997438   
Ni41     Ni     0.498710000000     0.969530000000     0.482180000000     1.01517    
Ni42     Ni     0.504900000000     0.040210000000     0.475200000000     0.994162   
Ni43     Ni     0.170250000000     0.290140000000     0.645890000000     0.996304   
Ni44     Ni     0.172770000000     0.359530000000     0.642110000000     1.01453    
Ni45     Ni     0.833980000000     0.131570000000     0.565290000000     1.01306    
Ni46     Ni     0.832380000000     0.198890000000     0.569830000000     0.997968   
Ni47     Ni     0.513940000000     0.472340000000     0.712660000000     1.01456    
Ni48     Ni     0.505900000000     0.536000000000     0.718000000000     1.00729    
Ni49     Ni     0.199580000000     0.369870000000     0.891910000000     1.01624    
Ni50     Ni     0.136480000000     0.297390000000     0.897210000000     1.00933    
Ni51     Ni     0.360760000000     0.205150000000     0.794790000000     1.00421    
Ni52     Ni     0.288890000000     0.141210000000     0.790420000000     0.993157   
Ni53     Ni     0.034900000000     0.530100000000     0.482250000000     0.997766   
Ni54     Ni     0.963360000000     0.466750000000     0.474570000000     1.00061    
Ni55     Ni     0.701630000000     0.872140000000     0.637610000000     0.999877   
Ni56     Ni     0.630570000000     0.807140000000     0.634390000000     1.00032    
Ni57     Ni     0.867740000000     0.708030000000     0.549810000000     0.990158   
Ni58     Ni     0.802370000000     0.637590000000     0.555540000000     0.999728   
Ni59     Ni     0.529580000000     0.037840000000     0.726110000000     0.996793   
Ni60     Ni     0.465640000000     0.966220000000     0.729620000000     1.00203    
Ni61     Ni     0.292410000000     0.159320000000     0.538990000000     1.01183    
Ni62     Ni     0.362750000000     0.163950000000     0.545180000000     0.995738   
Ni63     Ni     0.468170000000     0.500960000000     0.467280000000     1.00844    
Ni64     Ni     0.533560000000     0.495430000000     0.462610000000     1.00362    
Ni65     Ni     0.131790000000     0.838590000000     0.642200000000     0.998744   
Ni66     Ni     0.196960000000     0.833120000000     0.636240000000     0.996043   
Ni67     Ni     0.964260000000     0.501760000000     0.727110000000     1.01189    
Ni68     Ni     0.035270000000     0.507510000000     0.730930000000     0.987716   
Ni69     Ni     0.803700000000     0.176170000000     0.820050000000     1.00808    
Ni70     Ni     0.868840000000     0.170780000000     0.813580000000     0.998336   
Ni71     Ni     0.632460000000     0.830770000000     0.883010000000     1.01371    
Ni72     Ni     0.702990000000     0.836020000000     0.889960000000     0.996064   
O1       O      0.854860000000     0.643660000000     0.261320000000    -0.449458   
O2       O      0.818310000000     0.638270000000     0.349080000000    -0.44573    
O3       O      0.777130000000     0.613290000000     0.290920000000    -0.454554   
O4       O      0.897590000000     0.669400000000     0.319320000000    -0.450989   
O5       O      0.903070000000     0.735400000000     0.312970000000    -0.453184   
O6       O      0.781020000000     0.678920000000     0.287000000000    -0.444759   
O7       O      0.825740000000     0.705290000000     0.344290000000    -0.444296   
O8       O      0.859680000000     0.709530000000     0.255890000000    -0.445827   
O9       O      0.157640000000     0.796340000000     0.431430000000    -0.450639   
O10      O      0.191040000000     0.824680000000     0.343000000000    -0.445876   
O11      O      0.234610000000     0.842770000000     0.400320000000    -0.454314   
O12      O      0.113070000000     0.777540000000     0.374520000000    -0.453913   
O13      O      0.107470000000     0.837940000000     0.380310000000    -0.45256    
O14      O      0.230640000000     0.904490000000     0.403760000000    -0.444623   
O15      O      0.183520000000     0.884290000000     0.347340000000    -0.446938   
O16      O      0.152900000000     0.857500000000     0.436290000000    -0.446043   
O17      O      0.514890000000     0.971960000000     0.437990000000    -0.454445   
O18      O      0.481590000000     0.970940000000     0.025650000000    -0.455102   
O19      O      0.438290000000     0.943820000000     0.469190000000    -0.464656   
O20      O      0.559840000000     0.000020000000     0.995010000000    -0.449415   
O21      O      0.566380000000     0.066190000000     0.986980000000    -0.446234   
O22      O      0.442570000000     0.009250000000     0.464310000000    -0.445954   
O23      O      0.490270000000     0.038370000000     0.019800000000    -0.449196   
O24      O      0.519080000000     0.037290000000     0.431010000000    -0.447788   
O25      O      0.156760000000     0.289010000000     0.190670000000    -0.446387   
O26      O      0.184490000000     0.295750000000     0.101020000000    -0.45282    
O27      O      0.232290000000     0.322480000000     0.156640000000    -0.446414   
O28      O      0.108370000000     0.262880000000     0.134730000000    -0.450078   
O29      O      0.111590000000     0.327860000000     0.129650000000    -0.45259    
O30      O      0.233580000000     0.386950000000     0.154290000000    -0.458227   
O31      O      0.189700000000     0.361980000000     0.097980000000    -0.451012   
O32      O      0.156570000000     0.352620000000     0.186730000000    -0.447715   
O33      O      0.850080000000     0.146620000000     0.021150000000    -0.449787   
O34      O      0.818570000000     0.121660000000     0.110010000000    -0.451482   
O35      O      0.772530000000     0.103370000000     0.053630000000    -0.455022   
O36      O      0.895000000000     0.163520000000     0.077000000000    -0.455484   
O37      O      0.894280000000     0.226730000000     0.082280000000    -0.441685   
O38      O      0.770940000000     0.166170000000     0.057250000000    -0.447774   
O39      O      0.815440000000     0.183810000000     0.113690000000    -0.450147   
O40      O      0.848580000000     0.209570000000     0.025430000000    -0.449956   
O41      O      0.527780000000     0.487980000000     0.168280000000    -0.453253   
O42      O      0.500120000000     0.461330000000     0.257470000000    -0.451799   
O43      O      0.452120000000     0.439350000000     0.202310000000    -0.456244   
O44      O      0.574800000000     0.509030000000     0.223420000000    -0.461408   
O45      O      0.568600000000     0.569260000000     0.227380000000    -0.448515   
O46      O      0.444320000000     0.498430000000     0.208370000000    -0.454274   
O47      O      0.493100000000     0.521200000000     0.262420000000    -0.451028   
O48      O      0.518140000000     0.546280000000     0.173050000000    -0.453336   
O49      O      0.182190000000     0.368340000000     0.348110000000    -0.453      
O50      O      0.212820000000     0.365800000000     0.436180000000    -0.449348   
O51      O      0.232420000000     0.342670000000     0.377740000000    -0.455578   
O52      O      0.162740000000     0.392860000000     0.405460000000    -0.456818   
O53      O      0.103610000000     0.325670000000     0.411400000000    -0.443691   
O54      O      0.173010000000     0.275210000000     0.381530000000    -0.45978    
O55      O      0.154940000000     0.297450000000     0.440490000000    -0.451863   
O56      O      0.123350000000     0.300390000000     0.353270000000    -0.45881    
O57      O      0.360380000000     0.189830000000     0.339280000000    -0.4458     
O58      O      0.356820000000     0.215320000000     0.249760000000    -0.447148   
O59      O      0.331460000000     0.237590000000     0.305950000000    -0.448937   
O60      O      0.385470000000     0.168970000000     0.283530000000    -0.451613   
O61      O      0.318910000000     0.108150000000     0.280850000000    -0.438728   
O62      O      0.264010000000     0.178690000000     0.300000000000    -0.440307   
O63      O      0.289940000000     0.154960000000     0.246110000000    -0.453129   
O64      O      0.292170000000     0.131560000000     0.335300000000    -0.449493   
O65      O      0.030160000000     0.513920000000     0.026640000000    -0.449843   
O66      O      0.035470000000     0.541940000000     0.437150000000    -0.44773    
O67      O      0.005120000000     0.563190000000     0.991560000000    -0.442812   
O68      O      0.059400000000     0.492900000000     0.472660000000    -0.450299   
O69      O      0.992910000000     0.434100000000     0.464120000000    -0.449028   
O70      O      0.938590000000     0.503160000000     0.985240000000    -0.455304   
O71      O      0.967110000000     0.484510000000     0.430530000000    -0.446441   
O72      O      0.963820000000     0.453980000000     0.019430000000    -0.453176   
O73      O      0.694360000000     0.883760000000     0.093810000000    -0.45108    
O74      O      0.704850000000     0.855840000000     0.181010000000    -0.449766   
O75      O      0.726480000000     0.837160000000     0.122500000000    -0.449856   
O76      O      0.671740000000     0.903020000000     0.152410000000    -0.44348    
O77      O      0.605330000000     0.842350000000     0.147960000000    -0.447966   
O78      O      0.660650000000     0.776040000000     0.121070000000    -0.449822   
O79      O      0.637330000000     0.796280000000     0.178610000000    -0.447344   
O80      O      0.628260000000     0.822410000000     0.090410000000    -0.44965    
O81      O      0.880840000000     0.703570000000     0.094020000000    -0.445021   
O82      O      0.849960000000     0.708410000000     0.006100000000    -0.446091   
O83      O      0.833350000000     0.734210000000     0.063780000000    -0.447593   
O84      O      0.897840000000     0.676800000000     0.036050000000    -0.44252    
O85      O      0.836740000000     0.611390000000     0.042620000000    -0.453571   
O86      O      0.771750000000     0.668460000000     0.067810000000    -0.446619   
O87      O      0.790030000000     0.641550000000     0.011000000000    -0.450337   
O88      O      0.819480000000     0.637910000000     0.099600000000    -0.443701   
O89      O      0.540900000000     0.032230000000     0.270470000000    -0.449277   
O90      O      0.513940000000     0.039320000000     0.182130000000    -0.446582   
O91      O      0.492480000000     0.061230000000     0.239390000000    -0.448477   
O92      O      0.562440000000     0.009240000000     0.213010000000    -0.445872   
O93      O      0.502820000000     0.942480000000     0.217570000000    -0.450126   
O94      O      0.432330000000     0.994810000000     0.241310000000    -0.448853   
O95      O      0.455250000000     0.971380000000     0.185120000000    -0.449168   
O96      O      0.480580000000     0.965430000000     0.273830000000    -0.450521   
O97      O      0.291930000000     0.140900000000     0.995730000000    -0.453991   
O98      O      0.296800000000     0.177440000000     0.082630000000    -0.456792   
O99      O      0.324020000000     0.220160000000     0.025270000000    -0.445631   
O100     O      0.265860000000     0.099240000000     0.053590000000    -0.455723   
O101     O      0.331240000000     0.102130000000     0.056710000000    -0.443784   
O102     O      0.389640000000     0.225060000000     0.033520000000    -0.449377   
O103     O      0.361110000000     0.178950000000     0.089470000000    -0.445887   
O104     O      0.359610000000     0.149340000000     0.000320000000    -0.446657   
O105     O      0.484260000000     0.517290000000     0.011430000000    -0.447014   
O106     O      0.456990000000     0.484950000000     0.422800000000    -0.454335   
O107     O      0.437120000000     0.439660000000     0.979260000000    -0.45355    
O108     O      0.502840000000     0.561300000000     0.454470000000    -0.453733   
O109     O      0.564810000000     0.557460000000     0.451060000000    -0.442593   
O110     O      0.497830000000     0.434160000000     0.974180000000    -0.45277    
O111     O      0.518220000000     0.479850000000     0.418570000000    -0.452802   
O112     O      0.544430000000     0.510460000000     0.007040000000    -0.45195    
O113     O      0.149500000000     0.855820000000     0.186100000000    -0.448239   
O114     O      0.119060000000     0.822040000000     0.097760000000    -0.449486   
O115     O      0.101300000000     0.777370000000     0.154910000000    -0.450003   
O116     O      0.165980000000     0.898890000000     0.128980000000    -0.456323   
O117     O      0.227490000000     0.894970000000     0.123970000000    -0.44352    
O118     O      0.161960000000     0.772080000000     0.148800000000    -0.450392   
O119     O      0.179940000000     0.816590000000     0.092430000000    -0.450273   
O120     O      0.209650000000     0.849210000000     0.180590000000    -0.449897   
O121     O      0.961090000000     0.481670000000     0.183940000000    -0.450596   
O122     O      0.971380000000     0.521270000000     0.270640000000    -0.45711    
O123     O      0.994300000000     0.562110000000     0.211950000000    -0.446389   
O124     O      0.939170000000     0.442400000000     0.242670000000    -0.449871   
O125     O      0.005160000000     0.446490000000     0.244760000000    -0.442928   
O126     O      0.060700000000     0.567680000000     0.216790000000    -0.446776   
O127     O      0.037320000000     0.526280000000     0.274810000000    -0.444357   
O128     O      0.028520000000     0.489190000000     0.186680000000    -0.443563   
O129     O      0.791550000000     0.161940000000     0.275400000000    -0.450662   
O130     O      0.820170000000     0.189830000000     0.364450000000    -0.453967   
O131     O      0.838520000000     0.237240000000     0.308970000000    -0.456239   
O132     O      0.772770000000     0.114470000000     0.330660000000    -0.45635    
O133     O      0.833800000000     0.109780000000     0.326200000000    -0.456877   
O134     O      0.899540000000     0.232890000000     0.302060000000    -0.442477   
O135     O      0.881630000000     0.185750000000     0.357870000000    -0.454759   
O136     O      0.851260000000     0.154540000000     0.269820000000    -0.451001   
O137     O      0.633060000000     0.843140000000     0.427760000000    -0.452708   
O138     O      0.636220000000     0.818620000000     0.338580000000    -0.45421    
O139     O      0.606090000000     0.769210000000     0.392880000000    -0.455947   
O140     O      0.663780000000     0.893100000000     0.373800000000    -0.448869   
O141     O      0.729650000000     0.897470000000     0.379140000000    -0.456278   
O142     O      0.671500000000     0.773620000000     0.399800000000    -0.446171   
O143     O      0.701910000000     0.823040000000     0.345190000000    -0.452721   
O144     O      0.699890000000     0.850040000000     0.434210000000    -0.449397   
O145     O      0.854860000000     0.643660000000     0.761320000000    -0.449486   
O146     O      0.818310000000     0.638270000000     0.849080000000    -0.445753   
O147     O      0.777130000000     0.613300000000     0.790920000000    -0.454725   
O148     O      0.897580000000     0.669400000000     0.819320000000    -0.451108   
O149     O      0.903070000000     0.735400000000     0.812970000000    -0.453192   
O150     O      0.781020000000     0.678920000000     0.787000000000    -0.444817   
O151     O      0.825740000000     0.705290000000     0.844290000000    -0.444299   
O152     O      0.859680000000     0.709530000000     0.755890000000    -0.445829   
O153     O      0.157640000000     0.796350000000     0.931430000000    -0.450789   
O154     O      0.191040000000     0.824680000000     0.843000000000    -0.445961   
O155     O      0.234610000000     0.842770000000     0.900320000000    -0.454302   
O156     O      0.113070000000     0.777540000000     0.874520000000    -0.453928   
O157     O      0.107470000000     0.837940000000     0.880310000000    -0.452631   
O158     O      0.230640000000     0.904490000000     0.903760000000    -0.444528   
O159     O      0.183520000000     0.884290000000     0.847340000000    -0.446828   
O160     O      0.152900000000     0.857500000000     0.936290000000    -0.446108   
O161     O      0.514890000000     0.971960000000     0.938000000000    -0.454475   
O162     O      0.481590000000     0.970940000000     0.525650000000    -0.455123   
O163     O      0.438290000000     0.943820000000     0.969190000000    -0.464591   
O164     O      0.559840000000     0.000020000000     0.495010000000    -0.44936    
O165     O      0.566380000000     0.066190000000     0.486980000000    -0.446169   
O166     O      0.442570000000     0.009250000000     0.964310000000    -0.446036   
O167     O      0.490270000000     0.038370000000     0.519800000000    -0.449236   
O168     O      0.519080000000     0.037290000000     0.931010000000    -0.447746   
O169     O      0.156760000000     0.289010000000     0.690670000000    -0.446376   
O170     O      0.184490000000     0.295750000000     0.601020000000    -0.452836   
O171     O      0.232290000000     0.322480000000     0.656640000000    -0.446337   
O172     O      0.108370000000     0.262880000000     0.634740000000    -0.450074   
O173     O      0.111590000000     0.327860000000     0.629650000000    -0.452597   
O174     O      0.233580000000     0.386950000000     0.654290000000    -0.458316   
O175     O      0.189700000000     0.361980000000     0.597980000000    -0.45102    
O176     O      0.156570000000     0.352620000000     0.686730000000    -0.447712   
O177     O      0.850080000000     0.146620000000     0.521150000000    -0.44979    
O178     O      0.818580000000     0.121660000000     0.610010000000    -0.451415   
O179     O      0.772530000000     0.103370000000     0.553630000000    -0.455047   
O180     O      0.895000000000     0.163520000000     0.577000000000    -0.455464   
O181     O      0.894280000000     0.226730000000     0.582280000000    -0.441674   
O182     O      0.770940000000     0.166170000000     0.557250000000    -0.44778    
O183     O      0.815440000000     0.183810000000     0.613690000000    -0.450115   
O184     O      0.848580000000     0.209570000000     0.525430000000    -0.449956   
O185     O      0.527780000000     0.487980000000     0.668280000000    -0.453216   
O186     O      0.500120000000     0.461330000000     0.757470000000    -0.451802   
O187     O      0.452120000000     0.439360000000     0.702310000000    -0.45639    
O188     O      0.574800000000     0.509030000000     0.723420000000    -0.461416   
O189     O      0.568600000000     0.569260000000     0.727380000000    -0.448511   
O190     O      0.444320000000     0.498430000000     0.708370000000    -0.454317   
O191     O      0.493100000000     0.521200000000     0.762420000000    -0.451018   
O192     O      0.518140000000     0.546290000000     0.673050000000    -0.453186   
O193     O      0.182190000000     0.368340000000     0.848110000000    -0.452922   
O194     O      0.212820000000     0.365800000000     0.936180000000    -0.449375   
O195     O      0.232420000000     0.342670000000     0.877740000000    -0.455628   
O196     O      0.162730000000     0.392850000000     0.905460000000    -0.456858   
O197     O      0.103600000000     0.325670000000     0.911400000000    -0.443592   
O198     O      0.173000000000     0.275210000000     0.881530000000    -0.459863   
O199     O      0.154940000000     0.297450000000     0.940490000000    -0.451917   
O200     O      0.123350000000     0.300390000000     0.853270000000    -0.458843   
O201     O      0.360380000000     0.189830000000     0.839280000000    -0.445659   
O202     O      0.356820000000     0.215310000000     0.749760000000    -0.447247   
O203     O      0.331460000000     0.237590000000     0.805950000000    -0.448978   
O204     O      0.385470000000     0.168970000000     0.783530000000    -0.451534   
O205     O      0.318910000000     0.108150000000     0.780850000000    -0.438707   
O206     O      0.264010000000     0.178690000000     0.800000000000    -0.440294   
O207     O      0.289930000000     0.154960000000     0.746110000000    -0.4531     
O208     O      0.292170000000     0.131560000000     0.835300000000    -0.449458   
O209     O      0.030160000000     0.513910000000     0.526640000000    -0.449971   
O210     O      0.035470000000     0.541940000000     0.937150000000    -0.447701   
O211     O      0.005120000000     0.563180000000     0.491560000000    -0.442926   
O212     O      0.059400000000     0.492900000000     0.972660000000    -0.450281   
O213     O      0.992910000000     0.434100000000     0.964110000000    -0.448984   
O214     O      0.938590000000     0.503160000000     0.485240000000    -0.455333   
O215     O      0.967110000000     0.484510000000     0.930530000000    -0.446414   
O216     O      0.963830000000     0.453980000000     0.519430000000    -0.453306   
O217     O      0.694360000000     0.883760000000     0.593810000000    -0.451061   
O218     O      0.704850000000     0.855840000000     0.681010000000    -0.449739   
O219     O      0.726480000000     0.837160000000     0.622500000000    -0.449775   
O220     O      0.671730000000     0.903020000000     0.652410000000    -0.443537   
O221     O      0.605330000000     0.842350000000     0.647960000000    -0.448113   
O222     O      0.660640000000     0.776040000000     0.621070000000    -0.449695   
O223     O      0.637330000000     0.796280000000     0.678610000000    -0.447312   
O224     O      0.628250000000     0.822410000000     0.590410000000    -0.449615   
O225     O      0.880840000000     0.703580000000     0.594020000000    -0.44495    
O226     O      0.849960000000     0.708410000000     0.506100000000    -0.446195   
O227     O      0.833350000000     0.734210000000     0.563780000000    -0.447614   
O228     O      0.897840000000     0.676810000000     0.536050000000    -0.442462   
O229     O      0.836740000000     0.611390000000     0.542620000000    -0.453369   
O230     O      0.771750000000     0.668460000000     0.567810000000    -0.446557   
O231     O      0.790030000000     0.641550000000     0.511000000000    -0.450517   
O232     O      0.819480000000     0.637910000000     0.599600000000    -0.44352    
O233     O      0.540900000000     0.032230000000     0.770470000000    -0.449255   
O234     O      0.513940000000     0.039320000000     0.682130000000    -0.446575   
O235     O      0.492480000000     0.061230000000     0.739390000000    -0.448565   
O236     O      0.562430000000     0.009240000000     0.713010000000    -0.445868   
O237     O      0.502820000000     0.942480000000     0.717570000000    -0.450095   
O238     O      0.432330000000     0.994810000000     0.741310000000    -0.448947   
O239     O      0.455250000000     0.971370000000     0.685120000000    -0.449085   
O240     O      0.480580000000     0.965430000000     0.773830000000    -0.450509   
O241     O      0.291930000000     0.140900000000     0.495730000000    -0.453997   
O242     O      0.296800000000     0.177440000000     0.582620000000    -0.456919   
O243     O      0.324020000000     0.220160000000     0.525270000000    -0.445653   
O244     O      0.265860000000     0.099240000000     0.553590000000    -0.455751   
O245     O      0.331240000000     0.102130000000     0.556710000000    -0.443787   
O246     O      0.389640000000     0.225060000000     0.533520000000    -0.449379   
O247     O      0.361110000000     0.178950000000     0.589470000000    -0.445913   
O248     O      0.359610000000     0.149340000000     0.500320000000    -0.44672    
O249     O      0.484250000000     0.517290000000     0.511430000000    -0.44694    
O250     O      0.456990000000     0.484950000000     0.922800000000    -0.45434    
O251     O      0.437120000000     0.439670000000     0.479260000000    -0.453634   
O252     O      0.502840000000     0.561300000000     0.954470000000    -0.453718   
O253     O      0.564810000000     0.557460000000     0.951060000000    -0.442609   
O254     O      0.497820000000     0.434160000000     0.474180000000    -0.452716   
O255     O      0.518220000000     0.479860000000     0.918570000000    -0.452888   
O256     O      0.544430000000     0.510460000000     0.507040000000    -0.451934   
O257     O      0.149500000000     0.855820000000     0.686100000000    -0.448188   
O258     O      0.119060000000     0.822040000000     0.597760000000    -0.4495     
O259     O      0.101310000000     0.777360000000     0.654910000000    -0.450205   
O260     O      0.165980000000     0.898890000000     0.628980000000    -0.456319   
O261     O      0.227490000000     0.894970000000     0.623970000000    -0.443563   
O262     O      0.161960000000     0.772080000000     0.648800000000    -0.450496   
O263     O      0.179940000000     0.816590000000     0.592430000000    -0.450402   
O264     O      0.209650000000     0.849210000000     0.680590000000    -0.449857   
O265     O      0.961090000000     0.481670000000     0.683940000000    -0.450648   
O266     O      0.971380000000     0.521270000000     0.770640000000    -0.457169   
O267     O      0.994310000000     0.562110000000     0.711960000000    -0.446582   
O268     O      0.939170000000     0.442400000000     0.742670000000    -0.449914   
O269     O      0.005160000000     0.446480000000     0.744760000000    -0.44286    
O270     O      0.060700000000     0.567680000000     0.716790000000    -0.446807   
O271     O      0.037320000000     0.526290000000     0.774810000000    -0.444404   
O272     O      0.028520000000     0.489190000000     0.686680000000    -0.443578   
O273     O      0.791550000000     0.161940000000     0.775400000000    -0.45063    
O274     O      0.820170000000     0.189830000000     0.864450000000    -0.453986   
O275     O      0.838520000000     0.237240000000     0.808970000000    -0.456169   
O276     O      0.772780000000     0.114470000000     0.830660000000    -0.45637    
O277     O      0.833810000000     0.109780000000     0.826200000000    -0.456908   
O278     O      0.899540000000     0.232890000000     0.802060000000    -0.442598   
O279     O      0.881630000000     0.185750000000     0.857870000000    -0.454813   
O280     O      0.851260000000     0.154540000000     0.769820000000    -0.451148   
O281     O      0.633060000000     0.843140000000     0.927760000000    -0.452514   
O282     O      0.636220000000     0.818630000000     0.838580000000    -0.454002   
O283     O      0.606090000000     0.769210000000     0.892880000000    -0.455953   
O284     O      0.663780000000     0.893100000000     0.873800000000    -0.448815   
O285     O      0.729650000000     0.897460000000     0.879140000000    -0.456263   
O286     O      0.671500000000     0.773620000000     0.899800000000    -0.446186   
O287     O      0.701920000000     0.823040000000     0.845190000000    -0.452633   
O288     O      0.699900000000     0.850040000000     0.934210000000    -0.44933    


