data_structure

_audit_creation_method RASPA-1.0
_audit_creation_date 2023-5-19
_audit_author_name 'Poobodin Mano'

_cell_length_a    42.4312
_cell_length_b    42.4085
_cell_length_c    42.4289
_cell_angle_alpha 90
_cell_angle_beta  90
_cell_angle_gamma 90
_cell_volume      76348.4

_symmetry_cell_setting          triclinic
_symmetry_space_group_name_Hall 'P 1'
_symmetry_space_group_name_H-M  'P 1'
_symmetry_Int_Tables_number     1

_symmetry_equiv_pos_as_xyz 'x,y,z'

loop_
_atom_site_label
_atom_site_type_symbol
_atom_site_fract_x
_atom_site_fract_y
_atom_site_fract_z
_atom_site_charge
C1       C      0.492360000000     0.051200000000     0.241310000000     0.431995   
C2       C      0.990180000000     0.430990000000     0.236830000000     0.431475   
C3       C      0.431040000000     0.992860000000     0.239430000000     0.434585   
C4       C      0.051040000000     0.989680000000     0.238900000000     0.434403   
C5       C      0.490780000000     0.181120000000     0.240210000000     0.434091   
C6       C      0.489770000000     0.301000000000     0.236860000000     0.433993   
C7       C      0.990120000000     0.240870000000     0.298520000000     0.425645   
C8       C      0.990120000000     0.241130000000     0.178440000000     0.425558   
C9       C      0.301090000000     0.491220000000     0.241870000000     0.431485   
C10      C      0.180810000000     0.486620000000     0.241810000000     0.433387   
C11      C      0.240560000000     0.989430000000     0.302080000000     0.42913    
C12      C      0.240390000000     0.988750000000     0.182020000000     0.430345   
C13      C      0.241200000000     0.991770000000     0.052240000000     0.432262   
C14      C      0.241650000000     0.490250000000     0.431960000000     0.433504   
C15      C      0.241450000000     0.051360000000     0.990470000000     0.432093   
C16      C      0.241370000000     0.431140000000     0.994060000000     0.435444   
C17      C      0.989340000000     0.243250000000     0.048460000000     0.43357    
C18      C      0.489390000000     0.237940000000     0.428450000000     0.434944   
C19      C      0.049100000000     0.240440000000     0.988730000000     0.431728   
C20      C      0.428890000000     0.240530000000     0.988600000000     0.43173    
C21      C      0.239860000000     0.181240000000     0.488010000000     0.435001   
C22      C      0.238830000000     0.301310000000     0.493680000000     0.432579   
C23      C      0.178990000000     0.240470000000     0.990910000000     0.429454   
C24      C      0.299060000000     0.240860000000     0.990770000000     0.430138   
C25      C      0.379990000000     0.264260000000     0.475640000000     0.0329398  
C26      C      0.381010000000     0.216060000000     0.003490000000     0.0264263  
C27      C      0.347130000000     0.263190000000     0.475040000000     0.0335408  
C28      C      0.348010000000     0.216240000000     0.005440000000     0.0684013  
C29      C      0.098140000000     0.261490000000     0.472100000000     0.0328404  
C30      C      0.096860000000     0.218650000000     0.007610000000     0.0258809  
C31      C      0.131000000000     0.260140000000     0.471690000000     0.0343948  
C32      C      0.129860000000     0.218970000000     0.009520000000     0.0704278  
C33      C      0.222970000000     0.350470000000     0.972790000000     0.0319488  
C34      C      0.255720000000     0.348960000000     0.017760000000     0.0251014  
C35      C      0.222850000000     0.383280000000     0.973880000000     0.0338425  
C36      C      0.257980000000     0.382040000000     0.017350000000     0.0707427  
C37      C      0.217690000000     0.100090000000     0.003440000000     0.0375257  
C38      C      0.264470000000     0.099410000000     0.473310000000     0.0228768  
C39      C      0.218240000000     0.132910000000     0.003550000000     0.0378683  
C40      C      0.263540000000     0.132460000000     0.470830000000     0.0661766  
C41      C      0.264740000000     0.004290000000     0.382930000000     0.0370478  
C42      C      0.217230000000     0.475360000000     0.384190000000     0.0222696  
C43      C      0.263130000000     0.005460000000     0.350040000000     0.0372095  
C44      C      0.216930000000     0.474030000000     0.351210000000     0.0671516  
C45      C      0.264650000000     0.476920000000     0.100820000000     0.0330346  
C46      C      0.215860000000     0.003710000000     0.100480000000     0.0262465  
C47      C      0.263100000000     0.474520000000     0.133620000000     0.0343167  
C48      C      0.215400000000     0.003700000000     0.133500000000     0.0709889  
C49      C      0.467430000000     0.255040000000     0.347530000000     0.0321313  
C50      C      0.512240000000     0.222070000000     0.346340000000     0.0215013  
C51      C      0.468190000000     0.254850000000     0.380350000000     0.0339211  
C52      C      0.511620000000     0.219680000000     0.379380000000     0.0658039  
C53      C      0.467550000000     0.226440000000     0.129510000000     0.0323511  
C54      C      0.512180000000     0.259660000000     0.130480000000     0.021809   
C55      C      0.468330000000     0.226390000000     0.096680000000     0.0341866  
C56      C      0.511600000000     0.261780000000     0.097430000000     0.0654712  
C57      C      0.100300000000     0.010230000000     0.223540000000     0.0396348  
C58      C      0.097690000000     0.464220000000     0.254670000000     0.0252884  
C59      C      0.133080000000     0.009960000000     0.225940000000     0.0357768  
C60      C      0.130660000000     0.461690000000     0.254090000000     0.0652009  
C61      C      0.350480000000     0.469750000000     0.256650000000     0.0320125  
C62      C      0.348590000000     0.015820000000     0.225480000000     0.024753   
C63      C      0.383290000000     0.471290000000     0.256960000000     0.033362   
C64      C      0.381640000000     0.016080000000     0.223520000000     0.068948   
C65      C      0.005270000000     0.382100000000     0.258990000000     0.0360808  
C66      C      0.475590000000     0.382940000000     0.211930000000     0.021832   
C67      C      0.006120000000     0.349310000000     0.257990000000     0.0366066  
C68      C      0.474140000000     0.349810000000     0.212140000000     0.0656403  
C69      C      0.007430000000     0.100020000000     0.218930000000     0.0367686  
C70      C      0.477870000000     0.099300000000     0.266060000000     0.0221435  
C71      C      0.007880000000     0.132830000000     0.219600000000     0.0368655  
C72      C      0.476040000000     0.132380000000     0.265540000000     0.0658382  
C73      C      0.492360000000     0.051200000000     0.741310000000     0.432004   
C74      C      0.990180000000     0.430990000000     0.736830000000     0.431481   
C75      C      0.431040000000     0.992860000000     0.739430000000     0.434599   
C76      C      0.051040000000     0.989680000000     0.738900000000     0.434139   
C77      C      0.490780000000     0.181120000000     0.740210000000     0.434089   
C78      C      0.489770000000     0.301000000000     0.736860000000     0.433997   
C79      C      0.990120000000     0.240870000000     0.798520000000     0.425636   
C80      C      0.990120000000     0.241130000000     0.678440000000     0.425509   
C81      C      0.301090000000     0.491220000000     0.741870000000     0.431477   
C82      C      0.180810000000     0.486620000000     0.741810000000     0.433388   
C83      C      0.240560000000     0.989430000000     0.802080000000     0.429156   
C84      C      0.240390000000     0.988750000000     0.682020000000     0.430277   
C85      C      0.241200000000     0.991770000000     0.552230000000     0.432979   
C86      C      0.241650000000     0.490250000000     0.931960000000     0.433105   
C87      C      0.241450000000     0.051360000000     0.490470000000     0.432811   
C88      C      0.241370000000     0.431140000000     0.494060000000     0.436261   
C89      C      0.989340000000     0.243250000000     0.548460000000     0.434231   
C90      C      0.489390000000     0.237940000000     0.928450000000     0.434556   
C91      C      0.049100000000     0.240440000000     0.488730000000     0.432452   
C92      C      0.428890000000     0.240530000000     0.488600000000     0.432442   
C93      C      0.239860000000     0.181240000000     0.988010000000     0.429276   
C94      C      0.238830000000     0.301310000000     0.993680000000     0.427014   
C95      C      0.178990000000     0.240470000000     0.490910000000     0.435164   
C96      C      0.299060000000     0.240860000000     0.490770000000     0.43584    
C97      C      0.379990000000     0.264260000000     0.975640000000     0.0323203  
C98      C      0.381010000000     0.216060000000     0.503490000000     0.0222424  
C99      C      0.347130000000     0.263190000000     0.975040000000     0.0325736  
C100     C      0.348010000000     0.216240000000     0.505440000000     0.06599    
C101     C      0.098140000000     0.261490000000     0.972100000000     0.03224    
C102     C      0.096860000000     0.218650000000     0.507610000000     0.0218599  
C103     C      0.131000000000     0.260140000000     0.971690000000     0.0334784  
C104     C      0.129860000000     0.218970000000     0.509520000000     0.0678687  
C105     C      0.222970000000     0.350470000000     0.472790000000     0.032751   
C106     C      0.255720000000     0.348960000000     0.517760000000     0.0215437  
C107     C      0.222850000000     0.383280000000     0.473880000000     0.0344471  
C108     C      0.257980000000     0.382040000000     0.517350000000     0.0677327  
C109     C      0.217690000000     0.100090000000     0.503440000000     0.0337099  
C110     C      0.264470000000     0.099410000000     0.973310000000     0.0220782  
C111     C      0.218240000000     0.132910000000     0.503550000000     0.0345592  
C112     C      0.263540000000     0.132460000000     0.970830000000     0.0655952  
C113     C      0.264740000000     0.004290000000     0.882930000000     0.0369641  
C114     C      0.217230000000     0.475360000000     0.884190000000     0.0221778  
C115     C      0.263130000000     0.005460000000     0.850040000000     0.0371838  
C116     C      0.216930000000     0.474030000000     0.851210000000     0.0671573  
C117     C      0.264650000000     0.476920000000     0.600820000000     0.032851   
C118     C      0.215860000000     0.003710000000     0.600480000000     0.0260489  
C119     C      0.263100000000     0.474520000000     0.633620000000     0.0341902  
C120     C      0.215400000000     0.003700000000     0.633500000000     0.0709619  
C121     C      0.467430000000     0.255040000000     0.847520000000     0.032133   
C122     C      0.512240000000     0.222070000000     0.846340000000     0.0214217  
C123     C      0.468190000000     0.254850000000     0.880350000000     0.0338349  
C124     C      0.511620000000     0.219680000000     0.879380000000     0.0658837  
C125     C      0.467550000000     0.226440000000     0.629510000000     0.0321998  
C126     C      0.512180000000     0.259660000000     0.630480000000     0.0215567  
C127     C      0.468330000000     0.226390000000     0.596680000000     0.0340173  
C128     C      0.511600000000     0.261780000000     0.597440000000     0.0656803  
C129     C      0.100300000000     0.010230000000     0.723540000000     0.0396389  
C130     C      0.097690000000     0.464220000000     0.754670000000     0.0251554  
C131     C      0.133080000000     0.009960000000     0.725940000000     0.0356899  
C132     C      0.130660000000     0.461690000000     0.754090000000     0.0652484  
C133     C      0.350480000000     0.469750000000     0.756650000000     0.0319756  
C134     C      0.348590000000     0.015820000000     0.725480000000     0.0246974  
C135     C      0.383290000000     0.471290000000     0.756960000000     0.0333253  
C136     C      0.381640000000     0.016080000000     0.723520000000     0.0689844  
C137     C      0.005270000000     0.382100000000     0.758990000000     0.0361302  
C138     C      0.475590000000     0.382940000000     0.711930000000     0.0216866  
C139     C      0.006120000000     0.349310000000     0.757990000000     0.0365623  
C140     C      0.474140000000     0.349810000000     0.712140000000     0.0657188  
C141     C      0.007430000000     0.100020000000     0.718930000000     0.0367388  
C142     C      0.477870000000     0.099300000000     0.766060000000     0.0221069  
C143     C      0.007880000000     0.132830000000     0.719600000000     0.0368359  
C144     C      0.476040000000     0.132380000000     0.765540000000     0.065854   
C145     C      0.492360000000     0.551200000000     0.241310000000     0.432647   
C146     C      0.990180000000     0.930990000000     0.236830000000     0.431144   
C147     C      0.431040000000     0.492860000000     0.239430000000     0.435414   
C148     C      0.051040000000     0.489680000000     0.238900000000     0.435135   
C149     C      0.490780000000     0.681120000000     0.240210000000     0.434079   
C150     C      0.489770000000     0.801000000000     0.236860000000     0.433994   
C151     C      0.990120000000     0.740870000000     0.298520000000     0.425584   
C152     C      0.990120000000     0.741130000000     0.178440000000     0.425478   
C153     C      0.301090000000     0.991220000000     0.241870000000     0.426075   
C154     C      0.180810000000     0.986620000000     0.241810000000     0.427744   
C155     C      0.240560000000     0.489430000000     0.302080000000     0.434767   
C156     C      0.240390000000     0.488750000000     0.182020000000     0.436136   
C157     C      0.241200000000     0.491770000000     0.052240000000     0.432984   
C158     C      0.241650000000     0.990250000000     0.431960000000     0.432785   
C159     C      0.241450000000     0.551360000000     0.990470000000     0.432725   
C160     C      0.241370000000     0.931140000000     0.994060000000     0.435275   
C161     C      0.989340000000     0.743250000000     0.048460000000     0.433598   
C162     C      0.489390000000     0.737940000000     0.428450000000     0.43524    
C163     C      0.049100000000     0.740440000000     0.988730000000     0.431747   
C164     C      0.428890000000     0.740530000000     0.988600000000     0.432007   
C165     C      0.239860000000     0.681240000000     0.488010000000     0.434987   
C166     C      0.238830000000     0.801310000000     0.493680000000     0.432569   
C167     C      0.178990000000     0.740470000000     0.990910000000     0.429437   
C168     C      0.299060000000     0.740860000000     0.990770000000     0.430137   
C169     C      0.379990000000     0.764260000000     0.475640000000     0.0329293  
C170     C      0.381010000000     0.716050000000     0.003490000000     0.0262878  
C171     C      0.347130000000     0.763190000000     0.475040000000     0.0334955  
C172     C      0.348010000000     0.716240000000     0.005440000000     0.0685042  
C173     C      0.098140000000     0.761490000000     0.472100000000     0.0328092  
C174     C      0.096860000000     0.718650000000     0.007610000000     0.0258227  
C175     C      0.131000000000     0.760140000000     0.471690000000     0.0343592  
C176     C      0.129860000000     0.718970000000     0.009520000000     0.0704596  
C177     C      0.222970000000     0.850480000000     0.972790000000     0.0318729  
C178     C      0.255720000000     0.848960000000     0.017760000000     0.0250424  
C179     C      0.222850000000     0.883280000000     0.973880000000     0.033751   
C180     C      0.257980000000     0.882040000000     0.017350000000     0.0707535  
C181     C      0.217690000000     0.600090000000     0.003440000000     0.0373443  
C182     C      0.264470000000     0.599410000000     0.473310000000     0.0226522  
C183     C      0.218240000000     0.632910000000     0.003550000000     0.0377327  
C184     C      0.263540000000     0.632470000000     0.470830000000     0.0661639  
C185     C      0.264740000000     0.504290000000     0.382930000000     0.033136   
C186     C      0.217230000000     0.975360000000     0.384190000000     0.0215504  
C187     C      0.263130000000     0.505460000000     0.350040000000     0.0338284  
C188     C      0.216930000000     0.974040000000     0.351210000000     0.0665842  
C189     C      0.264650000000     0.976920000000     0.100820000000     0.032422   
C190     C      0.215860000000     0.503710000000     0.100480000000     0.0221422  
C191     C      0.263100000000     0.974510000000     0.133620000000     0.0332859  
C192     C      0.215400000000     0.503700000000     0.133500000000     0.0685186  
C193     C      0.467430000000     0.755040000000     0.347530000000     0.0321016  
C194     C      0.512240000000     0.722070000000     0.346340000000     0.0214502  
C195     C      0.468190000000     0.754860000000     0.380350000000     0.0338871  
C196     C      0.511620000000     0.719680000000     0.379380000000     0.065814   
C197     C      0.467550000000     0.726440000000     0.129510000000     0.0323017  
C198     C      0.512180000000     0.759660000000     0.130480000000     0.0217346  
C199     C      0.468330000000     0.726390000000     0.096680000000     0.034142   
C200     C      0.511600000000     0.761770000000     0.097430000000     0.0655307  
C201     C      0.100300000000     0.510230000000     0.223540000000     0.0358339  
C202     C      0.097690000000     0.964220000000     0.254670000000     0.024724   
C203     C      0.133080000000     0.509960000000     0.225940000000     0.0324998  
C204     C      0.130660000000     0.961690000000     0.254090000000     0.0645353  
C205     C      0.350480000000     0.969750000000     0.256650000000     0.0311929  
C206     C      0.348590000000     0.515820000000     0.225480000000     0.0211998  
C207     C      0.383290000000     0.971290000000     0.256960000000     0.0327048  
C208     C      0.381640000000     0.516080000000     0.223520000000     0.0659543  
C209     C      0.005270000000     0.882100000000     0.258990000000     0.0360168  
C210     C      0.475590000000     0.882940000000     0.211930000000     0.0217464  
C211     C      0.006120000000     0.849310000000     0.257990000000     0.0365836  
C212     C      0.474140000000     0.849810000000     0.212140000000     0.0656488  
C213     C      0.007430000000     0.600020000000     0.218930000000     0.0366332  
C214     C      0.477870000000     0.599300000000     0.266060000000     0.0219581  
C215     C      0.007880000000     0.632830000000     0.219600000000     0.0367471  
C216     C      0.476040000000     0.632390000000     0.265540000000     0.0658401  
C217     C      0.492360000000     0.551200000000     0.741310000000     0.432658   
C218     C      0.990180000000     0.930990000000     0.736830000000     0.431149   
C219     C      0.431040000000     0.492860000000     0.739430000000     0.43543    
C220     C      0.051040000000     0.489680000000     0.738900000000     0.434872   
C221     C      0.490780000000     0.681120000000     0.740210000000     0.434076   
C222     C      0.489770000000     0.801000000000     0.736860000000     0.433999   
C223     C      0.990120000000     0.740870000000     0.798520000000     0.425576   
C224     C      0.990120000000     0.741130000000     0.678440000000     0.425428   
C225     C      0.301090000000     0.991220000000     0.741870000000     0.426055   
C226     C      0.180810000000     0.986620000000     0.741810000000     0.427732   
C227     C      0.240560000000     0.489430000000     0.802080000000     0.434803   
C228     C      0.240390000000     0.488750000000     0.682020000000     0.436086   
C229     C      0.241200000000     0.491770000000     0.552230000000     0.433702   
C230     C      0.241650000000     0.990250000000     0.931960000000     0.432385   
C231     C      0.241450000000     0.551360000000     0.490470000000     0.433445   
C232     C      0.241370000000     0.931140000000     0.494060000000     0.436091   
C233     C      0.989340000000     0.743250000000     0.548460000000     0.43426    
C234     C      0.489390000000     0.737940000000     0.928450000000     0.434851   
C235     C      0.049100000000     0.740440000000     0.488730000000     0.432473   
C236     C      0.428890000000     0.740530000000     0.488600000000     0.43272    
C237     C      0.239860000000     0.681240000000     0.988010000000     0.429245   
C238     C      0.238830000000     0.801310000000     0.993680000000     0.426994   
C239     C      0.178990000000     0.740470000000     0.490910000000     0.435161   
C240     C      0.299060000000     0.740860000000     0.490770000000     0.435852   
C241     C      0.379990000000     0.764260000000     0.975640000000     0.0323088  
C242     C      0.381010000000     0.716050000000     0.503490000000     0.0220928  
C243     C      0.347130000000     0.763190000000     0.975040000000     0.0325263  
C244     C      0.348010000000     0.716240000000     0.505440000000     0.066086   
C245     C      0.098140000000     0.761490000000     0.972100000000     0.0322079  
C246     C      0.096860000000     0.718650000000     0.507610000000     0.0217899  
C247     C      0.131000000000     0.760140000000     0.971690000000     0.0334409  
C248     C      0.129860000000     0.718970000000     0.509520000000     0.0678935  
C249     C      0.222970000000     0.850480000000     0.472790000000     0.0326758  
C250     C      0.255720000000     0.848960000000     0.517760000000     0.0214786  
C251     C      0.222850000000     0.883280000000     0.473880000000     0.0343561  
C252     C      0.257980000000     0.882040000000     0.517350000000     0.0677415  
C253     C      0.217690000000     0.600090000000     0.503440000000     0.0335065  
C254     C      0.264470000000     0.599410000000     0.973310000000     0.0218508  
C255     C      0.218240000000     0.632910000000     0.503550000000     0.0344106  
C256     C      0.263540000000     0.632470000000     0.970830000000     0.0655807  
C257     C      0.264740000000     0.504290000000     0.882930000000     0.0330485  
C258     C      0.217230000000     0.975360000000     0.884190000000     0.0214584  
C259     C      0.263130000000     0.505460000000     0.850040000000     0.0337961  
C260     C      0.216930000000     0.974040000000     0.851210000000     0.0665893  
C261     C      0.264650000000     0.976920000000     0.600820000000     0.0322367  
C262     C      0.215860000000     0.503710000000     0.600480000000     0.0219216  
C263     C      0.263100000000     0.974510000000     0.633620000000     0.0331558  
C264     C      0.215400000000     0.503700000000     0.633500000000     0.0684822  
C265     C      0.467430000000     0.755040000000     0.847520000000     0.0321032  
C266     C      0.512240000000     0.722070000000     0.846340000000     0.0213703  
C267     C      0.468190000000     0.754860000000     0.880350000000     0.0338008  
C268     C      0.511620000000     0.719680000000     0.879380000000     0.0658941  
C269     C      0.467550000000     0.726440000000     0.629510000000     0.0321498  
C270     C      0.512180000000     0.759660000000     0.630480000000     0.0214816  
C271     C      0.468330000000     0.726390000000     0.596680000000     0.0339721  
C272     C      0.511600000000     0.761770000000     0.597440000000     0.0657402  
C273     C      0.100300000000     0.510230000000     0.723540000000     0.0358256  
C274     C      0.097690000000     0.964220000000     0.754670000000     0.0245898  
C275     C      0.133080000000     0.509960000000     0.725940000000     0.0324047  
C276     C      0.130660000000     0.961690000000     0.754090000000     0.0645813  
C277     C      0.350480000000     0.969750000000     0.756650000000     0.0311544  
C278     C      0.348590000000     0.515820000000     0.725480000000     0.0211339  
C279     C      0.383290000000     0.971290000000     0.756960000000     0.032667   
C280     C      0.381640000000     0.516080000000     0.723520000000     0.0659828  
C281     C      0.005270000000     0.882100000000     0.758990000000     0.0360661  
C282     C      0.475590000000     0.882940000000     0.711930000000     0.0216006  
C283     C      0.006120000000     0.849310000000     0.757990000000     0.0365393  
C284     C      0.474140000000     0.849810000000     0.712140000000     0.0657274  
C285     C      0.007430000000     0.600020000000     0.718930000000     0.0366028  
C286     C      0.477870000000     0.599300000000     0.766060000000     0.021921   
C287     C      0.007880000000     0.632830000000     0.719600000000     0.036717   
C288     C      0.476040000000     0.632390000000     0.765540000000     0.0658559  
C289     C      0.992360000000     0.051200000000     0.241310000000     0.43131    
C290     C      0.490180000000     0.430990000000     0.236830000000     0.432196   
C291     C      0.931040000000     0.992860000000     0.239430000000     0.434281   
C292     C      0.551040000000     0.989680000000     0.238900000000     0.435028   
C293     C      0.990780000000     0.181120000000     0.240210000000     0.428467   
C294     C      0.989770000000     0.301000000000     0.236860000000     0.428369   
C295     C      0.490120000000     0.240870000000     0.298520000000     0.431211   
C296     C      0.490120000000     0.241130000000     0.178440000000     0.431121   
C297     C      0.801090000000     0.491220000000     0.241870000000     0.43148    
C298     C      0.680810000000     0.486620000000     0.241810000000     0.433366   
C299     C      0.740560000000     0.989430000000     0.302080000000     0.429116   
C300     C      0.740390000000     0.988750000000     0.182020000000     0.430334   
C301     C      0.741200000000     0.991770000000     0.052240000000     0.4323     
C302     C      0.741650000000     0.490250000000     0.431960000000     0.433543   
C303     C      0.741450000000     0.051360000000     0.990470000000     0.43213    
C304     C      0.741370000000     0.431140000000     0.994060000000     0.43549    
C305     C      0.489340000000     0.243250000000     0.048460000000     0.434383   
C306     C      0.989390000000     0.237940000000     0.428450000000     0.43413    
C307     C      0.549100000000     0.240440000000     0.988730000000     0.43242    
C308     C      0.928900000000     0.240530000000     0.988600000000     0.431618   
C309     C      0.739860000000     0.181240000000     0.488010000000     0.435002   
C310     C      0.738830000000     0.301310000000     0.493680000000     0.432563   
C311     C      0.678990000000     0.240470000000     0.990910000000     0.429421   
C312     C      0.799060000000     0.240860000000     0.990770000000     0.430137   
C313     C      0.879990000000     0.264260000000     0.475640000000     0.0328612  
C314     C      0.881020000000     0.216060000000     0.003490000000     0.0263892  
C315     C      0.847130000000     0.263190000000     0.475040000000     0.0335168  
C316     C      0.848010000000     0.216240000000     0.005440000000     0.0684092  
C317     C      0.598140000000     0.261490000000     0.472100000000     0.0327178  
C318     C      0.596860000000     0.218650000000     0.007610000000     0.0257569  
C319     C      0.631000000000     0.260140000000     0.471690000000     0.0342596  
C320     C      0.629860000000     0.218970000000     0.009520000000     0.0704042  
C321     C      0.722970000000     0.350470000000     0.972790000000     0.0318785  
C322     C      0.755720000000     0.348960000000     0.017760000000     0.0250606  
C323     C      0.722850000000     0.383280000000     0.973880000000     0.0337939  
C324     C      0.757980000000     0.382040000000     0.017350000000     0.0707547  
C325     C      0.717690000000     0.100090000000     0.003440000000     0.0375042  
C326     C      0.764470000000     0.099410000000     0.473310000000     0.0228429  
C327     C      0.718240000000     0.132910000000     0.003550000000     0.0378088  
C328     C      0.763540000000     0.132460000000     0.470830000000     0.0661818  
C329     C      0.764740000000     0.004290000000     0.382930000000     0.037026   
C330     C      0.717230000000     0.475360000000     0.384190000000     0.0221976  
C331     C      0.763130000000     0.005460000000     0.350040000000     0.0371863  
C332     C      0.716930000000     0.474030000000     0.351210000000     0.067186   
C333     C      0.764650000000     0.476920000000     0.100820000000     0.0330099  
C334     C      0.715860000000     0.003710000000     0.100480000000     0.0261885  
C335     C      0.763100000000     0.474520000000     0.133620000000     0.0342919  
C336     C      0.715400000000     0.003700000000     0.133500000000     0.0710374  
C337     C      0.967430000000     0.255040000000     0.347530000000     0.0313156  
C338     C      0.012240000000     0.222070000000     0.346340000000     0.0250789  
C339     C      0.968190000000     0.254850000000     0.380350000000     0.0332965  
C340     C      0.011620000000     0.219680000000     0.379380000000     0.0687859  
C341     C      0.967550000000     0.226440000000     0.129510000000     0.0315267  
C342     C      0.012180000000     0.259660000000     0.130480000000     0.0253729  
C343     C      0.968330000000     0.226390000000     0.096680000000     0.0335831  
C344     C      0.011600000000     0.261780000000     0.097430000000     0.0684384  
C345     C      0.600300000000     0.010230000000     0.223540000000     0.0394549  
C346     C      0.597680000000     0.464220000000     0.254670000000     0.0250908  
C347     C      0.633080000000     0.009960000000     0.225940000000     0.0356419  
C348     C      0.630660000000     0.461690000000     0.254090000000     0.065143   
C349     C      0.850490000000     0.469750000000     0.256650000000     0.0319352  
C350     C      0.848590000000     0.015820000000     0.225480000000     0.0246867  
C351     C      0.883300000000     0.471290000000     0.256960000000     0.0333396  
C352     C      0.881640000000     0.016080000000     0.223520000000     0.0690302  
C353     C      0.505270000000     0.382100000000     0.258990000000     0.032223   
C354     C      0.975590000000     0.382940000000     0.211930000000     0.0210535  
C355     C      0.506120000000     0.349310000000     0.257990000000     0.0332749  
C356     C      0.974150000000     0.349810000000     0.212140000000     0.0651227  
C357     C      0.507440000000     0.100020000000     0.218930000000     0.0328904  
C358     C      0.977870000000     0.099300000000     0.266060000000     0.0213903  
C359     C      0.507890000000     0.132830000000     0.219600000000     0.0335184  
C360     C      0.976040000000     0.132380000000     0.265540000000     0.0652879  
C361     C      0.992360000000     0.051200000000     0.741310000000     0.431318   
C362     C      0.490180000000     0.430990000000     0.736830000000     0.432203   
C363     C      0.931040000000     0.992860000000     0.739430000000     0.434295   
C364     C      0.551040000000     0.989680000000     0.738900000000     0.434764   
C365     C      0.990780000000     0.181120000000     0.740210000000     0.428452   
C366     C      0.989770000000     0.301000000000     0.736860000000     0.428361   
C367     C      0.490120000000     0.240870000000     0.798520000000     0.431211   
C368     C      0.490120000000     0.241130000000     0.678440000000     0.431088   
C369     C      0.801090000000     0.491220000000     0.741870000000     0.431472   
C370     C      0.680810000000     0.486620000000     0.741810000000     0.433367   
C371     C      0.740560000000     0.989430000000     0.802080000000     0.429142   
C372     C      0.740390000000     0.988750000000     0.682020000000     0.430266   
C373     C      0.741200000000     0.991770000000     0.552230000000     0.433019   
C374     C      0.741650000000     0.490250000000     0.931960000000     0.433143   
C375     C      0.741450000000     0.051360000000     0.490470000000     0.43285    
C376     C      0.741370000000     0.431140000000     0.494060000000     0.436308   
C377     C      0.489340000000     0.243250000000     0.548460000000     0.435045   
C378     C      0.989390000000     0.237940000000     0.928450000000     0.433743   
C379     C      0.549100000000     0.240440000000     0.488730000000     0.433145   
C380     C      0.928900000000     0.240530000000     0.488600000000     0.432329   
C381     C      0.739860000000     0.181240000000     0.988010000000     0.429263   
C382     C      0.738830000000     0.301310000000     0.993680000000     0.426986   
C383     C      0.678990000000     0.240470000000     0.490910000000     0.435148   
C384     C      0.799060000000     0.240860000000     0.490770000000     0.435848   
C385     C      0.879990000000     0.264260000000     0.975640000000     0.0322407  
C386     C      0.881020000000     0.216060000000     0.503490000000     0.0222012  
C387     C      0.847130000000     0.263190000000     0.975040000000     0.0325491  
C388     C      0.848010000000     0.216240000000     0.505440000000     0.0659928  
C389     C      0.598140000000     0.261490000000     0.972100000000     0.0321157  
C390     C      0.596860000000     0.218650000000     0.507610000000     0.021714   
C391     C      0.631000000000     0.260140000000     0.971690000000     0.0333398  
C392     C      0.629860000000     0.218970000000     0.509520000000     0.067836   
C393     C      0.722970000000     0.350470000000     0.472790000000     0.0326825  
C394     C      0.755720000000     0.348960000000     0.517760000000     0.0214937  
C395     C      0.722850000000     0.383280000000     0.473880000000     0.0343996  
C396     C      0.757980000000     0.382040000000     0.517350000000     0.0677371  
C397     C      0.717690000000     0.100090000000     0.503440000000     0.0336782  
C398     C      0.764470000000     0.099410000000     0.973310000000     0.0220431  
C399     C      0.718240000000     0.132910000000     0.503550000000     0.03449    
C400     C      0.763540000000     0.132460000000     0.970830000000     0.0655991  
C401     C      0.764740000000     0.004290000000     0.882930000000     0.0369422  
C402     C      0.717230000000     0.475360000000     0.884190000000     0.0221055  
C403     C      0.763130000000     0.005460000000     0.850040000000     0.0371606  
C404     C      0.716930000000     0.474030000000     0.851210000000     0.0671918  
C405     C      0.764650000000     0.476920000000     0.600820000000     0.0328259  
C406     C      0.715860000000     0.003710000000     0.600480000000     0.02599    
C407     C      0.763100000000     0.474520000000     0.633620000000     0.034165   
C408     C      0.715400000000     0.003700000000     0.633500000000     0.0710105  
C409     C      0.967430000000     0.255040000000     0.847520000000     0.0313173  
C410     C      0.012240000000     0.222070000000     0.846340000000     0.0250063  
C411     C      0.968190000000     0.254850000000     0.880350000000     0.0332093  
C412     C      0.011620000000     0.219680000000     0.879380000000     0.0688673  
C413     C      0.967550000000     0.226440000000     0.629510000000     0.0313727  
C414     C      0.012180000000     0.259660000000     0.630480000000     0.0251346  
C415     C      0.968330000000     0.226390000000     0.596680000000     0.0334115  
C416     C      0.011600000000     0.261780000000     0.597440000000     0.0686608  
C417     C      0.600300000000     0.010230000000     0.723540000000     0.0394583  
C418     C      0.597680000000     0.464220000000     0.754670000000     0.024957   
C419     C      0.633080000000     0.009960000000     0.725940000000     0.0355544  
C420     C      0.630660000000     0.461690000000     0.754090000000     0.0651903  
C421     C      0.850490000000     0.469750000000     0.756650000000     0.0318982  
C422     C      0.848590000000     0.015820000000     0.725480000000     0.0246309  
C423     C      0.883300000000     0.471290000000     0.756960000000     0.0333029  
C424     C      0.881640000000     0.016080000000     0.723520000000     0.0690669  
C425     C      0.505270000000     0.382100000000     0.758990000000     0.0322608  
C426     C      0.975590000000     0.382940000000     0.711930000000     0.0209063  
C427     C      0.506120000000     0.349310000000     0.757990000000     0.0332222  
C428     C      0.974150000000     0.349810000000     0.712140000000     0.0652002  
C429     C      0.507440000000     0.100020000000     0.718930000000     0.0328502  
C430     C      0.977870000000     0.099300000000     0.766060000000     0.0213528  
C431     C      0.507890000000     0.132830000000     0.719600000000     0.0334797  
C432     C      0.976040000000     0.132380000000     0.765540000000     0.0653024  
C433     C      0.992360000000     0.551200000000     0.241310000000     0.431961   
C434     C      0.490180000000     0.930990000000     0.236830000000     0.431864   
C435     C      0.931040000000     0.492860000000     0.239430000000     0.435109   
C436     C      0.551040000000     0.489680000000     0.238900000000     0.435762   
C437     C      0.990780000000     0.681120000000     0.240210000000     0.428439   
C438     C      0.989770000000     0.801000000000     0.236860000000     0.428361   
C439     C      0.490120000000     0.740870000000     0.298520000000     0.431162   
C440     C      0.490120000000     0.741130000000     0.178440000000     0.431053   
C441     C      0.801090000000     0.991220000000     0.241870000000     0.426061   
C442     C      0.680810000000     0.986620000000     0.241810000000     0.427707   
C443     C      0.740560000000     0.489430000000     0.302080000000     0.434766   
C444     C      0.740390000000     0.488750000000     0.182020000000     0.436139   
C445     C      0.741200000000     0.491770000000     0.052240000000     0.433024   
C446     C      0.741650000000     0.990250000000     0.431960000000     0.432823   
C447     C      0.741450000000     0.551360000000     0.990470000000     0.432763   
C448     C      0.741370000000     0.931140000000     0.994060000000     0.435319   
C449     C      0.489340000000     0.743250000000     0.048460000000     0.434412   
C450     C      0.989390000000     0.737940000000     0.428450000000     0.434424   
C451     C      0.549100000000     0.740440000000     0.988730000000     0.432441   
C452     C      0.928900000000     0.740530000000     0.988600000000     0.431894   
C453     C      0.739860000000     0.681240000000     0.488010000000     0.434988   
C454     C      0.738830000000     0.801310000000     0.493680000000     0.432553   
C455     C      0.678990000000     0.740470000000     0.990910000000     0.429404   
C456     C      0.799060000000     0.740860000000     0.990770000000     0.430135   
C457     C      0.879990000000     0.764260000000     0.475640000000     0.0328507  
C458     C      0.881020000000     0.716050000000     0.003490000000     0.0262504  
C459     C      0.847130000000     0.763190000000     0.475040000000     0.0334715  
C460     C      0.848010000000     0.716240000000     0.005440000000     0.0685122  
C461     C      0.598140000000     0.761490000000     0.472100000000     0.0326863  
C462     C      0.596860000000     0.718650000000     0.007610000000     0.0256981  
C463     C      0.631000000000     0.760140000000     0.471690000000     0.0342236  
C464     C      0.629860000000     0.718970000000     0.009520000000     0.0704361  
C465     C      0.722970000000     0.850480000000     0.972790000000     0.0318025  
C466     C      0.755720000000     0.848960000000     0.017760000000     0.0250015  
C467     C      0.722850000000     0.883280000000     0.973880000000     0.0337021  
C468     C      0.757980000000     0.882040000000     0.017350000000     0.0707653  
C469     C      0.717690000000     0.600090000000     0.003440000000     0.0373221  
C470     C      0.764470000000     0.599410000000     0.473310000000     0.0226177  
C471     C      0.718240000000     0.632910000000     0.003550000000     0.0376726  
C472     C      0.763540000000     0.632470000000     0.470830000000     0.066169   
C473     C      0.764740000000     0.504290000000     0.382930000000     0.0331041  
C474     C      0.717230000000     0.975360000000     0.384190000000     0.0214771  
C475     C      0.763130000000     0.505460000000     0.350040000000     0.0337961  
C476     C      0.716930000000     0.974040000000     0.351210000000     0.0666175  
C477     C      0.764650000000     0.976920000000     0.100820000000     0.0323964  
C478     C      0.715860000000     0.503710000000     0.100480000000     0.0220727  
C479     C      0.763100000000     0.974510000000     0.133620000000     0.0332592  
C480     C      0.715400000000     0.503700000000     0.133500000000     0.0685609  
C481     C      0.967430000000     0.755040000000     0.347530000000     0.0312845  
C482     C      0.012240000000     0.722070000000     0.346340000000     0.0250383  
C483     C      0.968190000000     0.754860000000     0.380350000000     0.0332613  
C484     C      0.011620000000     0.719680000000     0.379380000000     0.068803   
C485     C      0.967550000000     0.726440000000     0.129510000000     0.0314754  
C486     C      0.012180000000     0.759660000000     0.130480000000     0.0253071  
C487     C      0.968330000000     0.726390000000     0.096680000000     0.0335373  
C488     C      0.011600000000     0.761770000000     0.097430000000     0.0685068  
C489     C      0.600300000000     0.510230000000     0.223540000000     0.0356325  
C490     C      0.597680000000     0.964220000000     0.254670000000     0.0245253  
C491     C      0.633080000000     0.509960000000     0.225940000000     0.0323524  
C492     C      0.630660000000     0.961690000000     0.254090000000     0.0644746  
C493     C      0.850490000000     0.969750000000     0.256650000000     0.0311139  
C494     C      0.848590000000     0.515820000000     0.225480000000     0.0211274  
C495     C      0.883300000000     0.971290000000     0.256960000000     0.0326832  
C496     C      0.881640000000     0.516080000000     0.223520000000     0.0660347  
C497     C      0.505270000000     0.882100000000     0.258990000000     0.0321558  
C498     C      0.975590000000     0.882940000000     0.211930000000     0.0209677  
C499     C      0.506120000000     0.849310000000     0.257990000000     0.0332458  
C500     C      0.974150000000     0.849810000000     0.212140000000     0.0651307  
C501     C      0.507440000000     0.600020000000     0.218930000000     0.0327336  
C502     C      0.977870000000     0.599300000000     0.266060000000     0.0212025  
C503     C      0.507890000000     0.632830000000     0.219600000000     0.0333875  
C504     C      0.976040000000     0.632390000000     0.265540000000     0.0652882  
C505     C      0.992360000000     0.551200000000     0.741310000000     0.431971   
C506     C      0.490180000000     0.930990000000     0.736830000000     0.43187    
C507     C      0.931040000000     0.492860000000     0.739430000000     0.435124   
C508     C      0.551040000000     0.489680000000     0.738900000000     0.435499   
C509     C      0.990780000000     0.681120000000     0.740210000000     0.428424   
C510     C      0.989770000000     0.801000000000     0.736860000000     0.428354   
C511     C      0.490120000000     0.740870000000     0.798520000000     0.431163   
C512     C      0.490120000000     0.741130000000     0.678440000000     0.431019   
C513     C      0.801090000000     0.991220000000     0.741870000000     0.42604    
C514     C      0.680810000000     0.986620000000     0.741810000000     0.427694   
C515     C      0.740560000000     0.489430000000     0.802080000000     0.434801   
C516     C      0.740390000000     0.488750000000     0.682020000000     0.436088   
C517     C      0.741200000000     0.491770000000     0.552230000000     0.433744   
C518     C      0.741650000000     0.990250000000     0.931960000000     0.432422   
C519     C      0.741450000000     0.551360000000     0.490470000000     0.433485   
C520     C      0.741370000000     0.931140000000     0.494060000000     0.436137   
C521     C      0.489340000000     0.743250000000     0.548460000000     0.435076   
C522     C      0.989390000000     0.737940000000     0.928450000000     0.434035   
C523     C      0.549100000000     0.740440000000     0.488730000000     0.433168   
C524     C      0.928900000000     0.740530000000     0.488600000000     0.432606   
C525     C      0.739860000000     0.681240000000     0.988010000000     0.429232   
C526     C      0.738830000000     0.801310000000     0.993680000000     0.426967   
C527     C      0.678990000000     0.740470000000     0.490910000000     0.435145   
C528     C      0.799060000000     0.740860000000     0.490770000000     0.43586    
C529     C      0.879990000000     0.764260000000     0.975640000000     0.0322292  
C530     C      0.881020000000     0.716050000000     0.503490000000     0.0220515  
C531     C      0.847130000000     0.763190000000     0.975040000000     0.0325018  
C532     C      0.848010000000     0.716240000000     0.505440000000     0.0660889  
C533     C      0.598140000000     0.761490000000     0.972100000000     0.0320833  
C534     C      0.596860000000     0.718650000000     0.507610000000     0.0216433  
C535     C      0.631000000000     0.760140000000     0.971690000000     0.0333019  
C536     C      0.629860000000     0.718970000000     0.509520000000     0.0678609  
C537     C      0.722970000000     0.850480000000     0.472790000000     0.0326072  
C538     C      0.755720000000     0.848960000000     0.517760000000     0.0214286  
C539     C      0.722850000000     0.883280000000     0.473880000000     0.0343083  
C540     C      0.757980000000     0.882040000000     0.517350000000     0.0677458  
C541     C      0.717690000000     0.600090000000     0.503440000000     0.0334741  
C542     C      0.764470000000     0.599410000000     0.973310000000     0.0218151  
C543     C      0.718240000000     0.632910000000     0.503550000000     0.0343407  
C544     C      0.763540000000     0.632470000000     0.970830000000     0.0655844  
C545     C      0.764740000000     0.504290000000     0.882930000000     0.0330164  
C546     C      0.717230000000     0.975360000000     0.884190000000     0.0213849  
C547     C      0.763130000000     0.505460000000     0.850040000000     0.0337638  
C548     C      0.716930000000     0.974040000000     0.851210000000     0.0666227  
C549     C      0.764650000000     0.976920000000     0.600820000000     0.0322107  
C550     C      0.715860000000     0.503710000000     0.600480000000     0.0218513  
C551     C      0.763100000000     0.974510000000     0.633620000000     0.0331287  
C552     C      0.715400000000     0.503700000000     0.633500000000     0.0685246  
C553     C      0.967430000000     0.755040000000     0.847520000000     0.0312862  
C554     C      0.012240000000     0.722070000000     0.846340000000     0.0249655  
C555     C      0.968190000000     0.754860000000     0.880350000000     0.033174   
C556     C      0.011620000000     0.719680000000     0.879380000000     0.0688847  
C557     C      0.967550000000     0.726440000000     0.629510000000     0.0313209  
C558     C      0.012180000000     0.759660000000     0.630480000000     0.0250682  
C559     C      0.968330000000     0.726390000000     0.596680000000     0.033365   
C560     C      0.011600000000     0.761770000000     0.597440000000     0.0687297  
C561     C      0.600300000000     0.510230000000     0.723540000000     0.0356235  
C562     C      0.597680000000     0.964220000000     0.754670000000     0.0243903  
C563     C      0.633080000000     0.509960000000     0.725940000000     0.0322567  
C564     C      0.630660000000     0.961690000000     0.754090000000     0.0645203  
C565     C      0.850490000000     0.969750000000     0.756650000000     0.0310754  
C566     C      0.848590000000     0.515820000000     0.725480000000     0.0210613  
C567     C      0.883300000000     0.971290000000     0.756960000000     0.0326455  
C568     C      0.881640000000     0.516080000000     0.723520000000     0.0660635  
C569     C      0.505270000000     0.882100000000     0.758990000000     0.0321934  
C570     C      0.975590000000     0.882940000000     0.711930000000     0.0208202  
C571     C      0.506120000000     0.849310000000     0.757990000000     0.0331931  
C572     C      0.974150000000     0.849810000000     0.712140000000     0.0652084  
C573     C      0.507440000000     0.600020000000     0.718930000000     0.0326928  
C574     C      0.977870000000     0.599300000000     0.766060000000     0.0211645  
C575     C      0.507890000000     0.632830000000     0.719600000000     0.0333483  
C576     C      0.976040000000     0.632390000000     0.765540000000     0.0653026  
H1       H      0.334580000000     0.282130000000     0.463260000000     0.0356296  
H2       H      0.391780000000     0.283650000000     0.463860000000     0.0371947  
H3       H      0.394080000000     0.196940000000     0.014490000000     0.0428353  
H4       H      0.143640000000     0.276770000000     0.456900000000     0.0346955  
H5       H      0.086440000000     0.278690000000     0.457230000000     0.0384702  
H6       H      0.083680000000     0.201730000000     0.021650000000     0.0443787  
H7       H      0.209250000000     0.395950000000     0.956290000000     0.0342732  
H8       H      0.209100000000     0.338910000000     0.954670000000     0.0374539  
H9       H      0.268550000000     0.335690000000     0.035530000000     0.0433211  
H10      H      0.199830000000     0.145250000000     0.016330000000     0.0361509  
H11      H      0.199110000000     0.088200000000     0.016370000000     0.0386853  
H12      H      0.283190000000     0.086430000000     0.461560000000     0.042511   
H13      H      0.281580000000     0.017830000000     0.337350000000     0.0351622  
H14      H      0.284010000000     0.016320000000     0.394660000000     0.037835   
H15      H      0.198550000000     0.463720000000     0.397340000000     0.0425513  
H16      H      0.282170000000     0.462680000000     0.145890000000     0.0352809  
H17      H      0.284470000000     0.466190000000     0.088750000000     0.0391172  
H18      H      0.196640000000     0.014890000000     0.087730000000     0.0442695  
H19      H      0.450550000000     0.268510000000     0.392900000000     0.0353789  
H20      H      0.449530000000     0.269100000000     0.335870000000     0.0386733  
H21      H      0.530110000000     0.209230000000     0.333210000000     0.0440946  
H22      H      0.450760000000     0.212570000000     0.084230000000     0.0361373  
H23      H      0.449720000000     0.212370000000     0.141250000000     0.0392059  
H24      H      0.529980000000     0.272680000000     0.143520000000     0.0442764  
H25      H      0.145990000000     0.028900000000     0.214590000000     0.0386007  
H26      H      0.088940000000     0.029350000000     0.210900000000     0.0333062  
H27      H      0.083710000000     0.446220000000     0.266460000000     0.0377097  
H28      H      0.396110000000     0.453320000000     0.269920000000     0.0362454  
H29      H      0.339100000000     0.451020000000     0.269820000000     0.0387886  
H30      H      0.335200000000     0.033930000000     0.213250000000     0.0439283  
H31      H      0.018700000000     0.336960000000     0.276550000000     0.0363027  
H32      H      0.017710000000     0.393910000000     0.277950000000     0.0382475  
H33      H      0.463800000000     0.395930000000     0.193250000000     0.0435224  
H34      H      0.020250000000     0.145150000000     0.200880000000     0.0366013  
H35      H      0.019890000000     0.088140000000     0.200010000000     0.0389814  
H36      H      0.466230000000     0.086360000000     0.284870000000     0.0440627  
H37      H      0.334580000000     0.282130000000     0.963260000000     0.0353981  
H38      H      0.391780000000     0.283650000000     0.963860000000     0.0368873  
H39      H      0.394080000000     0.196940000000     0.514490000000     0.0424894  
H40      H      0.143640000000     0.276770000000     0.956900000000     0.0346295  
H41      H      0.086440000000     0.278690000000     0.957230000000     0.0382619  
H42      H      0.083680000000     0.201730000000     0.521650000000     0.0441296  
H43      H      0.209250000000     0.395950000000     0.456290000000     0.034397   
H44      H      0.209100000000     0.338910000000     0.454670000000     0.0374952  
H45      H      0.268550000000     0.335690000000     0.535530000000     0.0433675  
H46      H      0.199830000000     0.145250000000     0.516330000000     0.0360411  
H47      H      0.199110000000     0.088200000000     0.516370000000     0.0382767  
H48      H      0.283190000000     0.086430000000     0.961560000000     0.0422923  
H49      H      0.281580000000     0.017830000000     0.837350000000     0.0351066  
H50      H      0.284010000000     0.016320000000     0.894660000000     0.0376889  
H51      H      0.198550000000     0.463720000000     0.897340000000     0.0424186  
H52      H      0.282170000000     0.462680000000     0.645890000000     0.0351544  
H53      H      0.284470000000     0.466190000000     0.588750000000     0.038715   
H54      H      0.196640000000     0.014890000000     0.587730000000     0.0438407  
H55      H      0.450550000000     0.268510000000     0.892890000000     0.0352738  
H56      H      0.449530000000     0.269100000000     0.835870000000     0.0386107  
H57      H      0.530110000000     0.209230000000     0.833220000000     0.0440687  
H58      H      0.450760000000     0.212570000000     0.584220000000     0.0356857  
H59      H      0.449720000000     0.212370000000     0.641250000000     0.0390814  
H60      H      0.529980000000     0.272680000000     0.643520000000     0.044243   
H61      H      0.145990000000     0.028900000000     0.714590000000     0.0385686  
H62      H      0.088940000000     0.029350000000     0.710900000000     0.0332049  
H63      H      0.083710000000     0.446220000000     0.766450000000     0.0376897  
H64      H      0.396110000000     0.453320000000     0.769920000000     0.0361889  
H65      H      0.339100000000     0.451020000000     0.769820000000     0.0387483  
H66      H      0.335200000000     0.033930000000     0.713250000000     0.0438672  
H67      H      0.018700000000     0.336960000000     0.776550000000     0.0362734  
H68      H      0.017710000000     0.393910000000     0.777950000000     0.0381702  
H69      H      0.463800000000     0.395930000000     0.693250000000     0.0433902  
H70      H      0.020250000000     0.145150000000     0.700880000000     0.0365095  
H71      H      0.019890000000     0.088140000000     0.700010000000     0.0388523  
H72      H      0.466230000000     0.086360000000     0.784870000000     0.0439935  
H73      H      0.334580000000     0.782120000000     0.463260000000     0.0355885  
H74      H      0.391780000000     0.783650000000     0.463860000000     0.0371072  
H75      H      0.394080000000     0.696940000000     0.014490000000     0.042722   
H76      H      0.143640000000     0.776770000000     0.456900000000     0.0346568  
H77      H      0.086440000000     0.778690000000     0.457230000000     0.0384079  
H78      H      0.083680000000     0.701730000000     0.021650000000     0.0442627  
H79      H      0.209250000000     0.895950000000     0.956290000000     0.03418    
H80      H      0.209100000000     0.838910000000     0.954670000000     0.037424   
H81      H      0.268550000000     0.835680000000     0.035530000000     0.0433002  
H82      H      0.199830000000     0.645250000000     0.016330000000     0.0360354  
H83      H      0.199110000000     0.588200000000     0.016370000000     0.0382263  
H84      H      0.283190000000     0.586430000000     0.461560000000     0.0420367  
H85      H      0.281580000000     0.517830000000     0.337350000000     0.034781   
H86      H      0.284010000000     0.516320000000     0.394660000000     0.0373448  
H87      H      0.198550000000     0.963720000000     0.397340000000     0.0423729  
H88      H      0.282170000000     0.962680000000     0.145890000000     0.0350663  
H89      H      0.284470000000     0.966190000000     0.088750000000     0.0388099  
H90      H      0.196640000000     0.514890000000     0.087730000000     0.0439318  
H91      H      0.450550000000     0.768510000000     0.392900000000     0.0353187  
H92      H      0.449530000000     0.769100000000     0.335870000000     0.0386323  
H93      H      0.530110000000     0.709230000000     0.333210000000     0.044027   
H94      H      0.450760000000     0.712570000000     0.084230000000     0.0360347  
H95      H      0.449720000000     0.712370000000     0.141250000000     0.0391325  
H96      H      0.529980000000     0.772680000000     0.143520000000     0.0442505  
H97      H      0.145990000000     0.528900000000     0.214590000000     0.0387473  
H98      H      0.088940000000     0.529350000000     0.210900000000     0.033121   
H99      H      0.083710000000     0.946220000000     0.266460000000     0.0376491  
H100     H      0.396110000000     0.953320000000     0.269920000000     0.0360994  
H101     H      0.339100000000     0.951010000000     0.269820000000     0.0386575  
H102     H      0.335200000000     0.533930000000     0.213250000000     0.0440038  
H103     H      0.018700000000     0.836960000000     0.276550000000     0.0362548  
H104     H      0.017710000000     0.893910000000     0.277950000000     0.0381334  
H105     H      0.463800000000     0.895930000000     0.193250000000     0.0433496  
H106     H      0.020250000000     0.645150000000     0.200880000000     0.0364758  
H107     H      0.019890000000     0.588140000000     0.200010000000     0.0385463  
H108     H      0.466230000000     0.586360000000     0.284870000000     0.0435578  
H109     H      0.334580000000     0.782120000000     0.963260000000     0.0353575  
H110     H      0.391780000000     0.783650000000     0.963860000000     0.0367998  
H111     H      0.394080000000     0.696940000000     0.514490000000     0.042374   
H112     H      0.143640000000     0.776770000000     0.956900000000     0.0345911  
H113     H      0.086440000000     0.778690000000     0.957230000000     0.0381998  
H114     H      0.083680000000     0.701730000000     0.521650000000     0.0440119  
H115     H      0.209250000000     0.895950000000     0.456290000000     0.0343034  
H116     H      0.209100000000     0.838910000000     0.454670000000     0.0374653  
H117     H      0.268550000000     0.835680000000     0.535530000000     0.0433457  
H118     H      0.199830000000     0.645250000000     0.516330000000     0.0359246  
H119     H      0.199110000000     0.588200000000     0.516370000000     0.0378138  
H120     H      0.283190000000     0.586430000000     0.961560000000     0.0418173  
H121     H      0.281580000000     0.517830000000     0.837350000000     0.0347243  
H122     H      0.284010000000     0.516320000000     0.894660000000     0.0371977  
H123     H      0.198550000000     0.963720000000     0.897340000000     0.0422407  
H124     H      0.282170000000     0.962680000000     0.645890000000     0.0349394  
H125     H      0.284470000000     0.966190000000     0.588750000000     0.0384067  
H126     H      0.196640000000     0.514890000000     0.587730000000     0.0434993  
H127     H      0.450550000000     0.768510000000     0.892890000000     0.0352137  
H128     H      0.449530000000     0.769100000000     0.835870000000     0.0385698  
H129     H      0.530110000000     0.709230000000     0.833220000000     0.0440009  
H130     H      0.450760000000     0.712570000000     0.584220000000     0.0355812  
H131     H      0.449720000000     0.712370000000     0.641250000000     0.0390073  
H132     H      0.529980000000     0.772680000000     0.643520000000     0.0442169  
H133     H      0.145990000000     0.528900000000     0.714590000000     0.038715   
H134     H      0.088940000000     0.529350000000     0.710900000000     0.0330188  
H135     H      0.083710000000     0.946220000000     0.766450000000     0.0376295  
H136     H      0.396110000000     0.953320000000     0.769920000000     0.036043   
H137     H      0.339100000000     0.951010000000     0.769820000000     0.0386172  
H138     H      0.335200000000     0.533930000000     0.713250000000     0.0439422  
H139     H      0.018700000000     0.836960000000     0.776550000000     0.0362255  
H140     H      0.017710000000     0.893910000000     0.777950000000     0.0380562  
H141     H      0.463800000000     0.895930000000     0.693250000000     0.0432168  
H142     H      0.020250000000     0.645150000000     0.700880000000     0.0363831  
H143     H      0.019890000000     0.588140000000     0.700010000000     0.0384152  
H144     H      0.466230000000     0.586360000000     0.784870000000     0.0434875  
H145     H      0.834580000000     0.282130000000     0.463260000000     0.0355767  
H146     H      0.891780000000     0.283650000000     0.463860000000     0.0370636  
H147     H      0.894090000000     0.196940000000     0.014490000000     0.0427008  
H148     H      0.643640000000     0.276770000000     0.456900000000     0.0345653  
H149     H      0.586440000000     0.278690000000     0.457230000000     0.0379862  
H150     H      0.583680000000     0.201730000000     0.021650000000     0.0438975  
H151     H      0.709250000000     0.395950000000     0.956290000000     0.0341594  
H152     H      0.709110000000     0.338910000000     0.954670000000     0.0373782  
H153     H      0.768550000000     0.335690000000     0.035530000000     0.0432957  
H154     H      0.699840000000     0.145250000000     0.016330000000     0.0360884  
H155     H      0.699110000000     0.088200000000     0.016370000000     0.0385431  
H156     H      0.783190000000     0.086430000000     0.461560000000     0.0424442  
H157     H      0.781580000000     0.017830000000     0.337350000000     0.03512    
H158     H      0.784010000000     0.016320000000     0.394660000000     0.0377584  
H159     H      0.698550000000     0.463720000000     0.397340000000     0.0424169  
H160     H      0.782170000000     0.462680000000     0.145890000000     0.0352434  
H161     H      0.784470000000     0.466190000000     0.088750000000     0.03905    
H162     H      0.696640000000     0.014890000000     0.087730000000     0.0441351  
H163     H      0.950550000000     0.268510000000     0.392900000000     0.035242   
H164     H      0.949530000000     0.269100000000     0.335870000000     0.0385536  
H165     H      0.030110000000     0.209230000000     0.333210000000     0.0440833  
H166     H      0.950750000000     0.212570000000     0.084230000000     0.035994   
H167     H      0.949720000000     0.212370000000     0.141250000000     0.039095   
H168     H      0.029980000000     0.272680000000     0.143520000000     0.0442567  
H169     H      0.645990000000     0.028900000000     0.214590000000     0.0384919  
H170     H      0.588940000000     0.029350000000     0.210900000000     0.0328268  
H171     H      0.583710000000     0.446220000000     0.266460000000     0.0372075  
H172     H      0.896110000000     0.453320000000     0.269920000000     0.0360718  
H173     H      0.839100000000     0.451020000000     0.269820000000     0.0387489  
H174     H      0.835200000000     0.033930000000     0.213250000000     0.043915   
H175     H      0.518700000000     0.336960000000     0.276550000000     0.0359751  
H176     H      0.517710000000     0.393910000000     0.277950000000     0.0377803  
H177     H      0.963800000000     0.395930000000     0.193250000000     0.0433188  
H178     H      0.520250000000     0.145150000000     0.200880000000     0.0362835  
H179     H      0.519890000000     0.088140000000     0.200010000000     0.0385248  
H180     H      0.966230000000     0.086360000000     0.284870000000     0.043844   
H181     H      0.834580000000     0.282130000000     0.963260000000     0.035345   
H182     H      0.891780000000     0.283650000000     0.963860000000     0.0367567  
H183     H      0.894090000000     0.196940000000     0.514490000000     0.0423543  
H184     H      0.643640000000     0.276770000000     0.956900000000     0.0344992  
H185     H      0.586440000000     0.278690000000     0.957230000000     0.037777   
H186     H      0.583680000000     0.201730000000     0.521650000000     0.043645   
H187     H      0.709250000000     0.395950000000     0.456290000000     0.0342836  
H188     H      0.709110000000     0.338910000000     0.454670000000     0.0374195  
H189     H      0.768550000000     0.335690000000     0.535530000000     0.0433425  
H190     H      0.699840000000     0.145250000000     0.516330000000     0.0359782  
H191     H      0.699110000000     0.088200000000     0.516370000000     0.0381321  
H192     H      0.783190000000     0.086430000000     0.961560000000     0.0422257  
H193     H      0.781580000000     0.017830000000     0.837350000000     0.0350644  
H194     H      0.784010000000     0.016320000000     0.894660000000     0.0376124  
H195     H      0.698550000000     0.463720000000     0.897340000000     0.0422838  
H196     H      0.782170000000     0.462680000000     0.645890000000     0.0351166  
H197     H      0.784470000000     0.466190000000     0.588750000000     0.038647   
H198     H      0.696640000000     0.014890000000     0.587730000000     0.0437042  
H199     H      0.950550000000     0.268510000000     0.892890000000     0.0351372  
H200     H      0.949530000000     0.269100000000     0.835870000000     0.0384909  
H201     H      0.030110000000     0.209230000000     0.833220000000     0.0440568  
H202     H      0.950750000000     0.212570000000     0.584220000000     0.0355418  
H203     H      0.949720000000     0.212370000000     0.641250000000     0.0389703  
H204     H      0.029980000000     0.272680000000     0.643520000000     0.0442232  
H205     H      0.645990000000     0.028900000000     0.714590000000     0.0384593  
H206     H      0.588940000000     0.029350000000     0.710900000000     0.0327236  
H207     H      0.583710000000     0.446220000000     0.766450000000     0.0371864  
H208     H      0.896110000000     0.453320000000     0.769920000000     0.0360152  
H209     H      0.839100000000     0.451020000000     0.769820000000     0.0387086  
H210     H      0.835200000000     0.033930000000     0.713250000000     0.0438538  
H211     H      0.518700000000     0.336960000000     0.776550000000     0.0359451  
H212     H      0.517710000000     0.393910000000     0.777950000000     0.0377025  
H213     H      0.963800000000     0.395930000000     0.693250000000     0.043186   
H214     H      0.520250000000     0.145150000000     0.700880000000     0.0361895  
H215     H      0.519890000000     0.088140000000     0.700010000000     0.0383931  
H216     H      0.966230000000     0.086360000000     0.784870000000     0.0437751  
H217     H      0.834580000000     0.782120000000     0.463260000000     0.0355357  
H218     H      0.891780000000     0.783650000000     0.463860000000     0.0369761  
H219     H      0.894090000000     0.696940000000     0.014490000000     0.042587   
H220     H      0.643640000000     0.776770000000     0.456900000000     0.0345262  
H221     H      0.586440000000     0.778690000000     0.457230000000     0.0379228  
H222     H      0.583680000000     0.701730000000     0.021650000000     0.0437794  
H223     H      0.709250000000     0.895950000000     0.956290000000     0.0340659  
H224     H      0.709110000000     0.838910000000     0.954670000000     0.0373482  
H225     H      0.768550000000     0.835680000000     0.035530000000     0.0432748  
H226     H      0.699840000000     0.645250000000     0.016330000000     0.0359723  
H227     H      0.699110000000     0.588200000000     0.016370000000     0.0380821  
H228     H      0.783190000000     0.586430000000     0.461560000000     0.0419689  
H229     H      0.781580000000     0.517830000000     0.337350000000     0.0347383  
H230     H      0.784010000000     0.516320000000     0.394660000000     0.0372672  
H231     H      0.698550000000     0.963720000000     0.397340000000     0.042238   
H232     H      0.782170000000     0.962680000000     0.145890000000     0.035029   
H233     H      0.784470000000     0.966190000000     0.088750000000     0.0387428  
H234     H      0.696640000000     0.514890000000     0.087730000000     0.0437951  
H235     H      0.950550000000     0.768510000000     0.392900000000     0.035182   
H236     H      0.949530000000     0.769100000000     0.335870000000     0.0385128  
H237     H      0.030110000000     0.709230000000     0.333210000000     0.0440163  
H238     H      0.950750000000     0.712570000000     0.084230000000     0.0358909  
H239     H      0.949720000000     0.712370000000     0.141250000000     0.0390211  
H240     H      0.029980000000     0.772680000000     0.143520000000     0.0442306  
H241     H      0.645990000000     0.528900000000     0.214590000000     0.0386384  
H242     H      0.588940000000     0.529350000000     0.210900000000     0.0326387  
H243     H      0.583710000000     0.946220000000     0.266460000000     0.0371463  
H244     H      0.896110000000     0.953320000000     0.269920000000     0.0359256  
H245     H      0.839100000000     0.951010000000     0.269820000000     0.0386179  
H246     H      0.835200000000     0.533930000000     0.213250000000     0.0439905  
H247     H      0.518700000000     0.836960000000     0.276550000000     0.0359263  
H248     H      0.517710000000     0.893910000000     0.277950000000     0.0376653  
H249     H      0.963800000000     0.895930000000     0.193250000000     0.0431464  
H250     H      0.520250000000     0.645150000000     0.200880000000     0.0361561  
H251     H      0.519890000000     0.588140000000     0.200010000000     0.0380857  
H252     H      0.966230000000     0.586360000000     0.284870000000     0.0433385  
H253     H      0.834580000000     0.782120000000     0.963260000000     0.0353045  
H254     H      0.891780000000     0.783650000000     0.963860000000     0.0366693  
H255     H      0.894090000000     0.696940000000     0.514490000000     0.0422385  
H256     H      0.643640000000     0.776770000000     0.956900000000     0.0344605  
H257     H      0.586440000000     0.778690000000     0.957230000000     0.0377138  
H258     H      0.583680000000     0.701730000000     0.521650000000     0.0435251  
H259     H      0.709250000000     0.895950000000     0.456290000000     0.0341897  
H260     H      0.709110000000     0.838910000000     0.454670000000     0.0373893  
H261     H      0.768550000000     0.835680000000     0.535530000000     0.0433207  
H262     H      0.699840000000     0.645250000000     0.516330000000     0.035861   
H263     H      0.699110000000     0.588200000000     0.516370000000     0.0376671  
H264     H      0.783190000000     0.586430000000     0.961560000000     0.0417496  
H265     H      0.781580000000     0.517830000000     0.837350000000     0.0346816  
H266     H      0.784010000000     0.516320000000     0.894660000000     0.0371203  
H267     H      0.698550000000     0.963720000000     0.897340000000     0.0421055  
H268     H      0.782170000000     0.962680000000     0.645890000000     0.0349018  
H269     H      0.784470000000     0.966190000000     0.588750000000     0.0383387  
H270     H      0.696640000000     0.514890000000     0.587730000000     0.0433606  
H271     H      0.950550000000     0.768510000000     0.892890000000     0.0350773  
H272     H      0.949530000000     0.769100000000     0.835870000000     0.0384501  
H273     H      0.030110000000     0.709230000000     0.833220000000     0.0439895  
H274     H      0.950750000000     0.712570000000     0.584220000000     0.0354368  
H275     H      0.949720000000     0.712370000000     0.641250000000     0.0388956  
H276     H      0.029980000000     0.772680000000     0.643520000000     0.0441969  
H277     H      0.645990000000     0.528900000000     0.714590000000     0.0386056  
H278     H      0.588940000000     0.529350000000     0.710900000000     0.0325347  
H279     H      0.583710000000     0.946220000000     0.766450000000     0.0371256  
H280     H      0.896110000000     0.953320000000     0.769920000000     0.0358692  
H281     H      0.839100000000     0.951010000000     0.769820000000     0.0385777  
H282     H      0.835200000000     0.533930000000     0.713250000000     0.0439288  
H283     H      0.518700000000     0.836960000000     0.776550000000     0.0358964  
H284     H      0.517710000000     0.893910000000     0.777950000000     0.0375877  
H285     H      0.963800000000     0.895930000000     0.693250000000     0.0430131  
H286     H      0.520250000000     0.645150000000     0.700880000000     0.0360613  
H287     H      0.519890000000     0.588140000000     0.700010000000     0.0379519  
H288     H      0.966230000000     0.586360000000     0.784870000000     0.0432684  
N1       N      0.396720000000     0.240350000000     0.989250000000    -0.181188   
N2       N      0.331230000000     0.239840000000     0.990600000000    -0.185894   
N3       N      0.081270000000     0.240280000000     0.989490000000    -0.180533   
N4       N      0.146800000000     0.239620000000     0.990920000000    -0.185963   
N5       N      0.239030000000     0.333480000000     0.494940000000    -0.178625   
N6       N      0.241050000000     0.398980000000     0.495320000000    -0.184968   
N7       N      0.241260000000     0.083530000000     0.989100000000    -0.180686   
N8       N      0.240590000000     0.149060000000     0.486840000000    -0.184117   
N9       N      0.241400000000     0.989840000000     0.399790000000    -0.181225   
N10      N      0.239870000000     0.989660000000     0.334260000000    -0.185851   
N11      N      0.240770000000     0.991040000000     0.084420000000    -0.180571   
N12      N      0.239190000000     0.988730000000     0.149880000000    -0.186231   
N13      N      0.989950000000     0.239390000000     0.330690000000    -0.179891   
N14      N      0.989760000000     0.236870000000     0.396250000000    -0.186619   
N15      N      0.989950000000     0.242370000000     0.146250000000    -0.17976    
N16      N      0.989800000000     0.244380000000     0.080670000000    -0.186142   
N17      N      0.082970000000     0.488060000000     0.238960000000    -0.1803     
N18      N      0.148440000000     0.485670000000     0.240810000000    -0.182084   
N19      N      0.333280000000     0.492280000000     0.241360000000    -0.178561   
N20      N      0.398840000000     0.993700000000     0.239740000000    -0.18677    
N21      N      0.490340000000     0.398780000000     0.235800000000    -0.178701   
N22      N      0.489790000000     0.333190000000     0.235380000000    -0.184254   
N23      N      0.492700000000     0.083400000000     0.242270000000    -0.178366   
N24      N      0.491350000000     0.148960000000     0.242050000000    -0.184223   
N25      N      0.396720000000     0.240350000000     0.489250000000    -0.178819   
N26      N      0.331230000000     0.239840000000     0.490600000000    -0.18451    
N27      N      0.081270000000     0.240280000000     0.489490000000    -0.178181   
N28      N      0.146800000000     0.239620000000     0.490920000000    -0.184537   
N29      N      0.239030000000     0.333480000000     0.994940000000    -0.180192   
N30      N      0.241050000000     0.398980000000     0.995320000000    -0.187143   
N31      N      0.241260000000     0.083530000000     0.489100000000    -0.178398   
N32      N      0.240590000000     0.149060000000     0.986840000000    -0.1857     
N33      N      0.241400000000     0.989840000000     0.899790000000    -0.181192   
N34      N      0.239870000000     0.989660000000     0.834260000000    -0.185872   
N35      N      0.240770000000     0.991040000000     0.584420000000    -0.180822   
N36      N      0.239190000000     0.988730000000     0.649880000000    -0.186266   
N37      N      0.989950000000     0.239390000000     0.830690000000    -0.1799     
N38      N      0.989760000000     0.236870000000     0.896250000000    -0.186607   
N39      N      0.989950000000     0.242370000000     0.646250000000    -0.179756   
N40      N      0.989800000000     0.244380000000     0.580670000000    -0.186514   
N41      N      0.082970000000     0.488060000000     0.738950000000    -0.180269   
N42      N      0.148440000000     0.485670000000     0.740820000000    -0.182102   
N43      N      0.333280000000     0.492280000000     0.741360000000    -0.178568   
N44      N      0.398840000000     0.993700000000     0.739740000000    -0.186809   
N45      N      0.490340000000     0.398780000000     0.735810000000    -0.178722   
N46      N      0.489790000000     0.333190000000     0.735380000000    -0.184274   
N47      N      0.492700000000     0.083400000000     0.742270000000    -0.178382   
N48      N      0.491350000000     0.148960000000     0.742050000000    -0.184235   
N49      N      0.396720000000     0.740350000000     0.989250000000    -0.18124    
N50      N      0.331230000000     0.739840000000     0.990600000000    -0.185917   
N51      N      0.081270000000     0.740280000000     0.989490000000    -0.180558   
N52      N      0.146800000000     0.739620000000     0.990920000000    -0.185987   
N53      N      0.239030000000     0.833480000000     0.494940000000    -0.178623   
N54      N      0.241050000000     0.898990000000     0.495320000000    -0.185039   
N55      N      0.241260000000     0.583530000000     0.989100000000    -0.181032   
N56      N      0.240590000000     0.649060000000     0.486840000000    -0.184166   
N57      N      0.241400000000     0.489840000000     0.399790000000    -0.178932   
N58      N      0.239870000000     0.489660000000     0.334260000000    -0.184293   
N59      N      0.240770000000     0.491040000000     0.084420000000    -0.178205   
N60      N      0.239190000000     0.488730000000     0.149880000000    -0.184851   
N61      N      0.989950000000     0.739390000000     0.330690000000    -0.17989    
N62      N      0.989760000000     0.736880000000     0.396250000000    -0.186701   
N63      N      0.989950000000     0.742370000000     0.146250000000    -0.179754   
N64      N      0.989800000000     0.744380000000     0.080670000000    -0.186196   
N65      N      0.082970000000     0.988060000000     0.238960000000    -0.1826     
N66      N      0.148440000000     0.985670000000     0.240810000000    -0.183605   
N67      N      0.333280000000     0.992280000000     0.241360000000    -0.18019    
N68      N      0.398840000000     0.493700000000     0.239740000000    -0.184592   
N69      N      0.490340000000     0.898780000000     0.235800000000    -0.17867    
N70      N      0.489790000000     0.833190000000     0.235380000000    -0.184268   
N71      N      0.492700000000     0.583400000000     0.242270000000    -0.178683   
N72      N      0.491350000000     0.648960000000     0.242050000000    -0.184266   
N73      N      0.396720000000     0.740350000000     0.489250000000    -0.178866   
N74      N      0.331230000000     0.739840000000     0.490600000000    -0.184529   
N75      N      0.081270000000     0.740280000000     0.489490000000    -0.1782     
N76      N      0.146800000000     0.739620000000     0.490920000000    -0.184557   
N77      N      0.239030000000     0.833480000000     0.994940000000    -0.180191   
N78      N      0.241050000000     0.898990000000     0.995320000000    -0.187214   
N79      N      0.241260000000     0.583530000000     0.489100000000    -0.178733   
N80      N      0.240590000000     0.649060000000     0.986840000000    -0.185755   
N81      N      0.241400000000     0.489840000000     0.899790000000    -0.178898   
N82      N      0.239870000000     0.489660000000     0.834260000000    -0.184313   
N83      N      0.240770000000     0.491040000000     0.584420000000    -0.178445   
N84      N      0.239190000000     0.488730000000     0.649880000000    -0.184881   
N85      N      0.989950000000     0.739390000000     0.830690000000    -0.1799     
N86      N      0.989760000000     0.736880000000     0.896250000000    -0.186689   
N87      N      0.989950000000     0.742370000000     0.646250000000    -0.17975    
N88      N      0.989800000000     0.744380000000     0.580670000000    -0.186569   
N89      N      0.082970000000     0.988060000000     0.738950000000    -0.182575   
N90      N      0.148440000000     0.985670000000     0.740820000000    -0.183625   
N91      N      0.333280000000     0.992280000000     0.741360000000    -0.1802     
N92      N      0.398840000000     0.493700000000     0.739740000000    -0.184626   
N93      N      0.490340000000     0.898780000000     0.735810000000    -0.178691   
N94      N      0.489790000000     0.833190000000     0.735380000000    -0.184288   
N95      N      0.492700000000     0.583400000000     0.742270000000    -0.1787     
N96      N      0.491350000000     0.648960000000     0.742050000000    -0.184278   
N97      N      0.896730000000     0.240350000000     0.989250000000    -0.181174   
N98      N      0.831230000000     0.239840000000     0.990600000000    -0.185906   
N99      N      0.581270000000     0.240280000000     0.989490000000    -0.18085    
N100     N      0.646800000000     0.239620000000     0.990920000000    -0.185991   
N101     N      0.739030000000     0.333480000000     0.494940000000    -0.17863    
N102     N      0.741050000000     0.398980000000     0.495320000000    -0.185006   
N103     N      0.741260000000     0.083530000000     0.989100000000    -0.180721   
N104     N      0.740590000000     0.149060000000     0.486840000000    -0.184121   
N105     N      0.741400000000     0.989840000000     0.399790000000    -0.181255   
N106     N      0.739870000000     0.989660000000     0.334260000000    -0.185873   
N107     N      0.740770000000     0.991040000000     0.084420000000    -0.180599   
N108     N      0.739190000000     0.988730000000     0.149880000000    -0.186253   
N109     N      0.489950000000     0.239390000000     0.330690000000    -0.178335   
N110     N      0.489760000000     0.236870000000     0.396250000000    -0.184462   
N111     N      0.489950000000     0.242370000000     0.146250000000    -0.178209   
N112     N      0.489800000000     0.244380000000     0.080670000000    -0.183987   
N113     N      0.582970000000     0.488060000000     0.238960000000    -0.180636   
N114     N      0.648440000000     0.485670000000     0.240810000000    -0.182116   
N115     N      0.833280000000     0.492280000000     0.241360000000    -0.178546   
N116     N      0.898840000000     0.993700000000     0.239740000000    -0.186775   
N117     N      0.990340000000     0.398780000000     0.235800000000    -0.180973   
N118     N      0.989790000000     0.333190000000     0.235380000000    -0.185826   
N119     N      0.992700000000     0.083400000000     0.242270000000    -0.180652   
N120     N      0.991350000000     0.148960000000     0.242050000000    -0.185787   
N121     N      0.896730000000     0.240350000000     0.489250000000    -0.178804   
N122     N      0.831230000000     0.239840000000     0.490600000000    -0.18452    
N123     N      0.581270000000     0.240280000000     0.489490000000    -0.178487   
N124     N      0.646800000000     0.239620000000     0.490920000000    -0.18456    
N125     N      0.739030000000     0.333480000000     0.994940000000    -0.1802     
N126     N      0.741050000000     0.398980000000     0.995320000000    -0.187185   
N127     N      0.741260000000     0.083530000000     0.489100000000    -0.178427   
N128     N      0.740590000000     0.149060000000     0.986840000000    -0.185708   
N129     N      0.741400000000     0.989840000000     0.899790000000    -0.181223   
N130     N      0.739870000000     0.989660000000     0.834260000000    -0.185895   
N131     N      0.740770000000     0.991040000000     0.584420000000    -0.180851   
N132     N      0.739190000000     0.988730000000     0.649880000000    -0.186288   
N133     N      0.489950000000     0.239390000000     0.830690000000    -0.178343   
N134     N      0.489760000000     0.236870000000     0.896250000000    -0.184449   
N135     N      0.489950000000     0.242370000000     0.646250000000    -0.178199   
N136     N      0.489800000000     0.244380000000     0.580670000000    -0.184351   
N137     N      0.582970000000     0.488060000000     0.738950000000    -0.180604   
N138     N      0.648440000000     0.485670000000     0.740820000000    -0.182133   
N139     N      0.833280000000     0.492280000000     0.741360000000    -0.178552   
N140     N      0.898840000000     0.993700000000     0.739740000000    -0.186814   
N141     N      0.990340000000     0.398780000000     0.735810000000    -0.181      
N142     N      0.989790000000     0.333190000000     0.735380000000    -0.185849   
N143     N      0.992700000000     0.083400000000     0.742270000000    -0.180674   
N144     N      0.991350000000     0.148960000000     0.742050000000    -0.185803   
N145     N      0.896730000000     0.740350000000     0.989250000000    -0.181226   
N146     N      0.831230000000     0.739840000000     0.990600000000    -0.185928   
N147     N      0.581270000000     0.740280000000     0.989490000000    -0.180876   
N148     N      0.646800000000     0.739620000000     0.990920000000    -0.186015   
N149     N      0.739030000000     0.833480000000     0.494940000000    -0.178627   
N150     N      0.741050000000     0.898990000000     0.495320000000    -0.185077   
N151     N      0.741260000000     0.583530000000     0.989100000000    -0.181068   
N152     N      0.740590000000     0.649060000000     0.486840000000    -0.18417    
N153     N      0.741400000000     0.489840000000     0.399790000000    -0.178958   
N154     N      0.739870000000     0.489660000000     0.334260000000    -0.184313   
N155     N      0.740770000000     0.491040000000     0.084420000000    -0.178227   
N156     N      0.739190000000     0.488730000000     0.149880000000    -0.18487    
N157     N      0.489950000000     0.739390000000     0.330690000000    -0.17833    
N158     N      0.489760000000     0.736880000000     0.396250000000    -0.184539   
N159     N      0.489950000000     0.742370000000     0.146250000000    -0.1782     
N160     N      0.489800000000     0.744380000000     0.080670000000    -0.184036   
N161     N      0.582970000000     0.988060000000     0.238960000000    -0.182945   
N162     N      0.648440000000     0.985670000000     0.240810000000    -0.183642   
N163     N      0.833280000000     0.992280000000     0.241360000000    -0.180175   
N164     N      0.898840000000     0.493700000000     0.239740000000    -0.184596   
N165     N      0.990340000000     0.898780000000     0.235800000000    -0.180944   
N166     N      0.989790000000     0.833190000000     0.235380000000    -0.185842   
N167     N      0.992700000000     0.583400000000     0.242270000000    -0.180979   
N168     N      0.991350000000     0.648960000000     0.242050000000    -0.185836   
N169     N      0.896730000000     0.740350000000     0.489250000000    -0.17885    
N170     N      0.831230000000     0.739840000000     0.490600000000    -0.184539   
N171     N      0.581270000000     0.740280000000     0.489490000000    -0.178506   
N172     N      0.646800000000     0.739620000000     0.490920000000    -0.18458    
N173     N      0.739030000000     0.833480000000     0.994940000000    -0.180199   
N174     N      0.741050000000     0.898990000000     0.995320000000    -0.187257   
N175     N      0.741260000000     0.583530000000     0.489100000000    -0.178763   
N176     N      0.740590000000     0.649060000000     0.986840000000    -0.185764   
N177     N      0.741400000000     0.489840000000     0.899790000000    -0.178924   
N178     N      0.739870000000     0.489660000000     0.834260000000    -0.184332   
N179     N      0.740770000000     0.491040000000     0.584420000000    -0.178468   
N180     N      0.739190000000     0.488730000000     0.649880000000    -0.184899   
N181     N      0.489950000000     0.739390000000     0.830690000000    -0.178338   
N182     N      0.489760000000     0.736880000000     0.896250000000    -0.184526   
N183     N      0.489950000000     0.742370000000     0.646250000000    -0.17819    
N184     N      0.489800000000     0.744380000000     0.580670000000    -0.1844     
N185     N      0.582970000000     0.988060000000     0.738950000000    -0.182921   
N186     N      0.648440000000     0.985670000000     0.740820000000    -0.183663   
N187     N      0.833280000000     0.992280000000     0.741360000000    -0.180186   
N188     N      0.898840000000     0.493700000000     0.739740000000    -0.18463    
N189     N      0.990340000000     0.898780000000     0.735810000000    -0.180971   
N190     N      0.989790000000     0.833190000000     0.735380000000    -0.185865   
N191     N      0.992700000000     0.583400000000     0.742270000000    -0.181002   
N192     N      0.991350000000     0.648960000000     0.742050000000    -0.185852   
Ni1      Ni     0.491050000000     0.992540000000     0.211040000000     1.00019    
Ni2      Ni     0.491140000000     0.489660000000     0.267120000000     1.00955    
Ni3      Ni     0.018050000000     0.241270000000     0.238480000000     1.00515    
Ni4      Ni     0.462270000000     0.240830000000     0.238490000000     1.00008    
Ni5      Ni     0.239960000000     0.017010000000     0.241610000000     1.00911    
Ni6      Ni     0.242040000000     0.461000000000     0.242390000000     1.00245    
Ni7      Ni     0.269620000000     0.991200000000     0.992170000000     0.98958    
Ni8      Ni     0.213430000000     0.991200000000     0.492020000000     1.0133     
Ni9      Ni     0.988970000000     0.212570000000     0.990090000000     1.00128    
Ni10     Ni     0.989030000000     0.268580000000     0.486830000000     0.997404   
Ni11     Ni     0.239070000000     0.239570000000     0.018840000000     1.01176    
Ni12     Ni     0.239040000000     0.242920000000     0.462840000000     1.00436    
Ni13     Ni     0.491050000000     0.992540000000     0.711040000000     0.999856   
Ni14     Ni     0.491140000000     0.489660000000     0.767120000000     1.00943    
Ni15     Ni     0.018050000000     0.241270000000     0.738480000000     1.00514    
Ni16     Ni     0.462270000000     0.240830000000     0.738490000000     1.00007    
Ni17     Ni     0.239960000000     0.017010000000     0.741610000000     1.0091     
Ni18     Ni     0.242040000000     0.461000000000     0.742400000000     1.00245    
Ni19     Ni     0.269620000000     0.991200000000     0.492170000000     0.993826   
Ni20     Ni     0.213430000000     0.991200000000     0.992020000000     1.00874    
Ni21     Ni     0.988970000000     0.212570000000     0.490090000000     1.00569    
Ni22     Ni     0.989030000000     0.268580000000     0.986830000000     0.993075   
Ni23     Ni     0.239070000000     0.239570000000     0.518840000000     1.0091     
Ni24     Ni     0.239040000000     0.242920000000     0.962840000000     0.998849   
Ni25     Ni     0.491050000000     0.492540000000     0.211040000000     1.00483    
Ni26     Ni     0.491140000000     0.989660000000     0.267120000000     1.00522    
Ni27     Ni     0.018050000000     0.741270000000     0.238480000000     1.0051     
Ni28     Ni     0.462270000000     0.740830000000     0.238490000000     1.00004    
Ni29     Ni     0.239960000000     0.517010000000     0.241610000000     1.00646    
Ni30     Ni     0.242040000000     0.961010000000     0.242390000000     0.996846   
Ni31     Ni     0.269620000000     0.491200000000     0.992170000000     0.994004   
Ni32     Ni     0.213430000000     0.491210000000     0.492020000000     1.01778    
Ni33     Ni     0.988970000000     0.712570000000     0.990090000000     1.00101    
Ni34     Ni     0.989030000000     0.768580000000     0.486830000000     0.997421   
Ni35     Ni     0.239070000000     0.739570000000     0.018840000000     1.01175    
Ni36     Ni     0.239040000000     0.742920000000     0.462840000000     1.00434    
Ni37     Ni     0.491050000000     0.492540000000     0.711040000000     1.0045     
Ni38     Ni     0.491140000000     0.989660000000     0.767120000000     1.0051     
Ni39     Ni     0.018050000000     0.741270000000     0.738480000000     1.0051     
Ni40     Ni     0.462270000000     0.740830000000     0.738490000000     1.00003    
Ni41     Ni     0.239960000000     0.517010000000     0.741610000000     1.00645    
Ni42     Ni     0.242040000000     0.961010000000     0.742400000000     0.99683    
Ni43     Ni     0.269620000000     0.491200000000     0.492170000000     0.998255   
Ni44     Ni     0.213430000000     0.491210000000     0.992020000000     1.01321    
Ni45     Ni     0.988970000000     0.712570000000     0.490090000000     1.00544    
Ni46     Ni     0.989030000000     0.768580000000     0.986830000000     0.993087   
Ni47     Ni     0.239070000000     0.739570000000     0.518840000000     1.00909    
Ni48     Ni     0.239040000000     0.742920000000     0.962840000000     0.998815   
Ni49     Ni     0.991050000000     0.992540000000     0.211040000000     0.995802   
Ni50     Ni     0.991140000000     0.489660000000     0.267120000000     1.00511    
Ni51     Ni     0.518050000000     0.241270000000     0.238480000000     1.00234    
Ni52     Ni     0.962270000000     0.240830000000     0.238490000000     0.994586   
Ni53     Ni     0.739960000000     0.017010000000     0.241610000000     1.00909    
Ni54     Ni     0.742040000000     0.461000000000     0.242390000000     1.00245    
Ni55     Ni     0.769630000000     0.991200000000     0.992170000000     0.989595   
Ni56     Ni     0.713430000000     0.991200000000     0.492020000000     1.01314    
Ni57     Ni     0.488970000000     0.212570000000     0.990090000000     1.00574    
Ni58     Ni     0.489030000000     0.268580000000     0.486830000000     1.00183    
Ni59     Ni     0.739070000000     0.239570000000     0.018840000000     1.01176    
Ni60     Ni     0.739040000000     0.242920000000     0.462840000000     1.00435    
Ni61     Ni     0.991050000000     0.992540000000     0.711040000000     0.995454   
Ni62     Ni     0.991140000000     0.489660000000     0.767120000000     1.00499    
Ni63     Ni     0.518050000000     0.241270000000     0.738480000000     1.00233    
Ni64     Ni     0.962270000000     0.240830000000     0.738490000000     0.994559   
Ni65     Ni     0.739960000000     0.017010000000     0.741610000000     1.00909    
Ni66     Ni     0.742040000000     0.461000000000     0.742400000000     1.00244    
Ni67     Ni     0.769630000000     0.991200000000     0.492170000000     0.993846   
Ni68     Ni     0.713430000000     0.991200000000     0.992020000000     1.00858    
Ni69     Ni     0.488970000000     0.212570000000     0.490090000000     1.01016    
Ni70     Ni     0.489030000000     0.268580000000     0.986830000000     0.997492   
Ni71     Ni     0.739070000000     0.239570000000     0.518840000000     1.0091     
Ni72     Ni     0.739040000000     0.242920000000     0.962840000000     0.998821   
Ni73     Ni     0.991050000000     0.492540000000     0.211040000000     1.00043    
Ni74     Ni     0.991140000000     0.989660000000     0.267120000000     1.00079    
Ni75     Ni     0.518050000000     0.741270000000     0.238480000000     1.00229    
Ni76     Ni     0.962270000000     0.740830000000     0.238490000000     0.994535   
Ni77     Ni     0.739960000000     0.517010000000     0.241610000000     1.00644    
Ni78     Ni     0.742040000000     0.961010000000     0.242390000000     0.99683    
Ni79     Ni     0.769630000000     0.491200000000     0.992170000000     0.994024   
Ni80     Ni     0.713430000000     0.491210000000     0.492020000000     1.01764    
Ni81     Ni     0.488970000000     0.712570000000     0.990090000000     1.00548    
Ni82     Ni     0.489030000000     0.768580000000     0.486830000000     1.00185    
Ni83     Ni     0.739070000000     0.739570000000     0.018840000000     1.01176    
Ni84     Ni     0.739040000000     0.742920000000     0.462840000000     1.00433    
Ni85     Ni     0.991050000000     0.492540000000     0.711040000000     1.00009    
Ni86     Ni     0.991140000000     0.989660000000     0.767120000000     1.00067    
Ni87     Ni     0.518050000000     0.741270000000     0.738480000000     1.00228    
Ni88     Ni     0.962270000000     0.740830000000     0.738490000000     0.994507   
Ni89     Ni     0.739960000000     0.517010000000     0.741610000000     1.00643    
Ni90     Ni     0.742040000000     0.961010000000     0.742400000000     0.996814   
Ni91     Ni     0.769630000000     0.491200000000     0.492170000000     0.998282   
Ni92     Ni     0.713430000000     0.491210000000     0.992020000000     1.01306    
Ni93     Ni     0.488970000000     0.712570000000     0.490090000000     1.00992    
Ni94     Ni     0.489030000000     0.768580000000     0.986830000000     0.997509   
Ni95     Ni     0.739070000000     0.739570000000     0.518840000000     1.00908    
Ni96     Ni     0.739040000000     0.742920000000     0.962840000000     0.998787   
O1       O      0.994150000000     0.037210000000     0.214620000000    -0.445656   
O2       O      0.488030000000     0.447150000000     0.211270000000    -0.44312    
O3       O      0.445980000000     0.995630000000     0.213290000000    -0.443923   
O4       O      0.036170000000     0.490470000000     0.212620000000    -0.441404   
O5       O      0.036190000000     0.989720000000     0.265200000000    -0.444055   
O6       O      0.446050000000     0.488590000000     0.265310000000    -0.447189   
O7       O      0.992410000000     0.444910000000     0.263520000000    -0.45063    
O8       O      0.489930000000     0.035110000000     0.266890000000    -0.440726   
O9       O      0.016410000000     0.196230000000     0.234830000000    -0.440505   
O10      O      0.015650000000     0.286270000000     0.242160000000    -0.44058    
O11      O      0.016060000000     0.237160000000     0.283420000000    -0.441075   
O12      O      0.015990000000     0.245310000000     0.193530000000    -0.440895   
O13      O      0.464340000000     0.236240000000     0.193520000000    -0.44282    
O14      O      0.464280000000     0.245440000000     0.283460000000    -0.443114   
O15      O      0.463920000000     0.285730000000     0.233440000000    -0.442271   
O16      O      0.464670000000     0.195980000000     0.243550000000    -0.442244   
O17      O      0.285080000000     0.016700000000     0.238730000000    -0.441305   
O18      O      0.194930000000     0.013370000000     0.243490000000    -0.440131   
O19      O      0.242890000000     0.015490000000     0.286880000000    -0.439076   
O20      O      0.237070000000     0.014810000000     0.196850000000    -0.442752   
O21      O      0.244820000000     0.462850000000     0.197070000000    -0.441918   
O22      O      0.238950000000     0.463110000000     0.287330000000    -0.443171   
O23      O      0.196920000000     0.461090000000     0.240140000000    -0.441856   
O24      O      0.286980000000     0.464670000000     0.245260000000    -0.445511   
O25      O      0.267570000000     0.491510000000     0.037390000000    -0.440142   
O26      O      0.267930000000     0.990820000000     0.446920000000    -0.444933   
O27      O      0.267750000000     0.036390000000     0.990460000000    -0.441114   
O28      O      0.267700000000     0.446010000000     0.493880000000    -0.442388   
O29      O      0.215190000000     0.446130000000     0.992420000000    -0.448755   
O30      O      0.215260000000     0.036310000000     0.491670000000    -0.444566   
O31      O      0.215440000000     0.489980000000     0.447030000000    -0.449396   
O32      O      0.215090000000     0.992290000000     0.037020000000    -0.446665   
O33      O      0.486390000000     0.216500000000     0.034790000000    -0.445097   
O34      O      0.991600000000     0.212480000000     0.444710000000    -0.44247    
O35      O      0.033950000000     0.214580000000     0.992680000000    -0.444792   
O36      O      0.443970000000     0.214310000000     0.488450000000    -0.447597   
O37      O      0.443860000000     0.266850000000     0.988470000000    -0.444747   
O38      O      0.034200000000     0.266430000000     0.484420000000    -0.440214   
O39      O      0.486510000000     0.264690000000     0.442150000000    -0.448036   
O40      O      0.991590000000     0.268690000000     0.032180000000    -0.438604   
O41      O      0.236670000000     0.194840000000     0.014770000000    -0.442866   
O42      O      0.241580000000     0.284960000000     0.019050000000    -0.439309   
O43      O      0.194000000000     0.241050000000     0.017140000000    -0.440078   
O44      O      0.284070000000     0.237120000000     0.016730000000    -0.440998   
O45      O      0.284130000000     0.245590000000     0.464920000000    -0.444797   
O46      O      0.193910000000     0.240910000000     0.464610000000    -0.444754   
O47      O      0.236150000000     0.287600000000     0.466920000000    -0.448383   
O48      O      0.242020000000     0.197570000000     0.462600000000    -0.440857   
O49      O      0.994150000000     0.037210000000     0.714620000000    -0.445722   
O50      O      0.488030000000     0.447150000000     0.711270000000    -0.443229   
O51      O      0.445980000000     0.995630000000     0.713290000000    -0.444009   
O52      O      0.036170000000     0.490470000000     0.712620000000    -0.441429   
O53      O      0.036190000000     0.989720000000     0.765210000000    -0.443929   
O54      O      0.446050000000     0.488590000000     0.765310000000    -0.447232   
O55      O      0.992410000000     0.444910000000     0.763520000000    -0.450669   
O56      O      0.489930000000     0.035110000000     0.766890000000    -0.440768   
O57      O      0.016410000000     0.196230000000     0.734830000000    -0.440517   
O58      O      0.015650000000     0.286270000000     0.742160000000    -0.440591   
O59      O      0.016060000000     0.237160000000     0.783420000000    -0.441071   
O60      O      0.015990000000     0.245310000000     0.693530000000    -0.440915   
O61      O      0.464340000000     0.236240000000     0.693520000000    -0.44286    
O62      O      0.464280000000     0.245440000000     0.783460000000    -0.443122   
O63      O      0.463920000000     0.285730000000     0.733440000000    -0.44228    
O64      O      0.464670000000     0.195980000000     0.743550000000    -0.442259   
O65      O      0.285080000000     0.016700000000     0.738730000000    -0.441316   
O66      O      0.194930000000     0.013370000000     0.743490000000    -0.44013    
O67      O      0.242890000000     0.015490000000     0.786880000000    -0.439102   
O68      O      0.237070000000     0.014810000000     0.696850000000    -0.442753   
O69      O      0.244820000000     0.462850000000     0.697070000000    -0.441853   
O70      O      0.238950000000     0.463110000000     0.787330000000    -0.443295   
O71      O      0.196920000000     0.461090000000     0.740140000000    -0.441873   
O72      O      0.286980000000     0.464670000000     0.745260000000    -0.445543   
O73      O      0.267570000000     0.491510000000     0.537390000000    -0.443736   
O74      O      0.267930000000     0.990820000000     0.946930000000    -0.444376   
O75      O      0.267750000000     0.036390000000     0.490450000000    -0.440714   
O76      O      0.267700000000     0.446010000000     0.993880000000    -0.443269   
O77      O      0.215190000000     0.446130000000     0.492420000000    -0.448373   
O78      O      0.215260000000     0.036310000000     0.991670000000    -0.445486   
O79      O      0.215440000000     0.489980000000     0.947030000000    -0.448727   
O80      O      0.215090000000     0.992290000000     0.537020000000    -0.450332   
O81      O      0.486390000000     0.216500000000     0.534790000000    -0.448595   
O82      O      0.991600000000     0.212480000000     0.944720000000    -0.441936   
O83      O      0.033950000000     0.214580000000     0.492680000000    -0.443768   
O84      O      0.443970000000     0.214310000000     0.988450000000    -0.448485   
O85      O      0.443860000000     0.266850000000     0.488460000000    -0.444348   
O86      O      0.034200000000     0.266430000000     0.984420000000    -0.440516   
O87      O      0.486510000000     0.264690000000     0.942150000000    -0.447334   
O88      O      0.991590000000     0.268690000000     0.532180000000    -0.442213   
O89      O      0.236670000000     0.194840000000     0.514770000000    -0.446747   
O90      O      0.241580000000     0.284960000000     0.519050000000    -0.44339    
O91      O      0.194000000000     0.241050000000     0.517140000000    -0.444074   
O92      O      0.284070000000     0.237120000000     0.516730000000    -0.444985   
O93      O      0.284130000000     0.245590000000     0.964920000000    -0.443359   
O94      O      0.193910000000     0.240910000000     0.964610000000    -0.443381   
O95      O      0.236150000000     0.287600000000     0.966920000000    -0.446907   
O96      O      0.242020000000     0.197570000000     0.962600000000    -0.439478   
O97      O      0.994150000000     0.537210000000     0.214620000000    -0.449174   
O98      O      0.488030000000     0.947150000000     0.211270000000    -0.442512   
O99      O      0.445980000000     0.495630000000     0.213290000000    -0.442991   
O100     O      0.036170000000     0.990470000000     0.212620000000    -0.442182   
O101     O      0.036190000000     0.489720000000     0.265200000000    -0.443614   
O102     O      0.446050000000     0.988590000000     0.265310000000    -0.44754    
O103     O      0.992410000000     0.944910000000     0.263520000000    -0.449951   
O104     O      0.489930000000     0.535110000000     0.266890000000    -0.44434    
O105     O      0.016410000000     0.696230000000     0.234830000000    -0.440527   
O106     O      0.015650000000     0.786270000000     0.242160000000    -0.440597   
O107     O      0.016060000000     0.737150000000     0.283420000000    -0.441048   
O108     O      0.015990000000     0.745310000000     0.193530000000    -0.440887   
O109     O      0.464340000000     0.736230000000     0.193520000000    -0.442793   
O110     O      0.464280000000     0.745440000000     0.283460000000    -0.443111   
O111     O      0.463920000000     0.785730000000     0.233440000000    -0.442285   
O112     O      0.464670000000     0.695980000000     0.243550000000    -0.442254   
O113     O      0.285080000000     0.516710000000     0.238730000000    -0.445166   
O114     O      0.194930000000     0.513370000000     0.243490000000    -0.444187   
O115     O      0.242890000000     0.515490000000     0.286880000000    -0.443237   
O116     O      0.237070000000     0.514810000000     0.196850000000    -0.446699   
O117     O      0.244820000000     0.962850000000     0.197070000000    -0.440529   
O118     O      0.238950000000     0.963110000000     0.287330000000    -0.441652   
O119     O      0.196920000000     0.961090000000     0.240140000000    -0.440407   
O120     O      0.286980000000     0.964670000000     0.245260000000    -0.444151   
O121     O      0.267570000000     0.991510000000     0.037390000000    -0.440511   
O122     O      0.267930000000     0.490820000000     0.446920000000    -0.44403    
O123     O      0.267750000000     0.536390000000     0.990460000000    -0.444715   
O124     O      0.267700000000     0.946010000000     0.493880000000    -0.441801   
O125     O      0.215190000000     0.946130000000     0.992420000000    -0.448288   
O126     O      0.215260000000     0.536310000000     0.491670000000    -0.448289   
O127     O      0.215440000000     0.989980000000     0.447030000000    -0.449719   
O128     O      0.215090000000     0.492290000000     0.037020000000    -0.445707   
O129     O      0.486390000000     0.716500000000     0.034790000000    -0.445184   
O130     O      0.991600000000     0.712480000000     0.444710000000    -0.442649   
O131     O      0.033950000000     0.714580000000     0.992680000000    -0.444882   
O132     O      0.443970000000     0.714310000000     0.488450000000    -0.447757   
O133     O      0.443860000000     0.766840000000     0.988470000000    -0.444982   
O134     O      0.034200000000     0.766430000000     0.484420000000    -0.44027    
O135     O      0.486510000000     0.764680000000     0.442150000000    -0.448261   
O136     O      0.991590000000     0.768690000000     0.032180000000    -0.438667   
O137     O      0.236670000000     0.694840000000     0.014770000000    -0.442889   
O138     O      0.241580000000     0.784960000000     0.019050000000    -0.439318   
O139     O      0.194000000000     0.741050000000     0.017140000000    -0.440078   
O140     O      0.284070000000     0.737120000000     0.016730000000    -0.440997   
O141     O      0.284130000000     0.745590000000     0.464920000000    -0.444812   
O142     O      0.193910000000     0.740910000000     0.464610000000    -0.444789   
O143     O      0.236150000000     0.787600000000     0.466920000000    -0.448392   
O144     O      0.242020000000     0.697570000000     0.462600000000    -0.440901   
O145     O      0.994150000000     0.537210000000     0.714620000000    -0.449251   
O146     O      0.488030000000     0.947150000000     0.711270000000    -0.44262    
O147     O      0.445980000000     0.495630000000     0.713290000000    -0.443074   
O148     O      0.036170000000     0.990470000000     0.712620000000    -0.442209   
O149     O      0.036190000000     0.489720000000     0.765210000000    -0.443488   
O150     O      0.446050000000     0.988590000000     0.765310000000    -0.447582   
O151     O      0.992410000000     0.944910000000     0.763520000000    -0.449987   
O152     O      0.489930000000     0.535110000000     0.766890000000    -0.44439    
O153     O      0.016410000000     0.696230000000     0.734830000000    -0.440539   
O154     O      0.015650000000     0.786270000000     0.742160000000    -0.440607   
O155     O      0.016060000000     0.737150000000     0.783420000000    -0.441044   
O156     O      0.015990000000     0.745310000000     0.693530000000    -0.440907   
O157     O      0.464340000000     0.736230000000     0.693520000000    -0.442832   
O158     O      0.464280000000     0.745440000000     0.783460000000    -0.443119   
O159     O      0.463920000000     0.785730000000     0.733440000000    -0.442294   
O160     O      0.464670000000     0.695980000000     0.743550000000    -0.442269   
O161     O      0.285080000000     0.516710000000     0.738730000000    -0.445188   
O162     O      0.194930000000     0.513370000000     0.743490000000    -0.444196   
O163     O      0.242890000000     0.515490000000     0.786880000000    -0.443271   
O164     O      0.237070000000     0.514810000000     0.696850000000    -0.446714   
O165     O      0.244820000000     0.962850000000     0.697070000000    -0.440462   
O166     O      0.238950000000     0.963110000000     0.787330000000    -0.441772   
O167     O      0.196920000000     0.961090000000     0.740140000000    -0.440421   
O168     O      0.286980000000     0.964670000000     0.745260000000    -0.444179   
O169     O      0.267570000000     0.991510000000     0.537390000000    -0.444106   
O170     O      0.267930000000     0.490820000000     0.946930000000    -0.443473   
O171     O      0.267750000000     0.536390000000     0.490450000000    -0.444314   
O172     O      0.267700000000     0.946010000000     0.993880000000    -0.442683   
O173     O      0.215190000000     0.946130000000     0.492420000000    -0.447906   
O174     O      0.215260000000     0.536310000000     0.991670000000    -0.449213   
O175     O      0.215440000000     0.989980000000     0.947030000000    -0.44905    
O176     O      0.215090000000     0.492290000000     0.537020000000    -0.44937    
O177     O      0.486390000000     0.716500000000     0.534790000000    -0.448693   
O178     O      0.991600000000     0.712480000000     0.944720000000    -0.442113   
O179     O      0.033950000000     0.714580000000     0.492680000000    -0.443857   
O180     O      0.443970000000     0.714310000000     0.988450000000    -0.448648   
O181     O      0.443860000000     0.766840000000     0.488460000000    -0.444583   
O182     O      0.034200000000     0.766430000000     0.984420000000    -0.440572   
O183     O      0.486510000000     0.764680000000     0.942150000000    -0.447557   
O184     O      0.991590000000     0.768690000000     0.532180000000    -0.442285   
O185     O      0.236670000000     0.694840000000     0.514770000000    -0.446784   
O186     O      0.241580000000     0.784960000000     0.519050000000    -0.443406   
O187     O      0.194000000000     0.741050000000     0.517140000000    -0.444084   
O188     O      0.284070000000     0.737120000000     0.516730000000    -0.444995   
O189     O      0.284130000000     0.745590000000     0.964920000000    -0.443371   
O190     O      0.193910000000     0.740910000000     0.964610000000    -0.443413   
O191     O      0.236150000000     0.787600000000     0.966920000000    -0.446913   
O192     O      0.242020000000     0.697570000000     0.962600000000    -0.439519   
O193     O      0.494150000000     0.037210000000     0.214620000000    -0.44469    
O194     O      0.988030000000     0.447150000000     0.211270000000    -0.443412   
O195     O      0.945980000000     0.995630000000     0.213290000000    -0.443289   
O196     O      0.536170000000     0.490470000000     0.212620000000    -0.444998   
O197     O      0.536190000000     0.989720000000     0.265200000000    -0.447669   
O198     O      0.946050000000     0.488590000000     0.265310000000    -0.446576   
O199     O      0.492410000000     0.444910000000     0.263520000000    -0.449667   
O200     O      0.989940000000     0.035110000000     0.266890000000    -0.441042   
O201     O      0.516410000000     0.196230000000     0.234830000000    -0.444523   
O202     O      0.515650000000     0.286270000000     0.242160000000    -0.444603   
O203     O      0.516060000000     0.237160000000     0.283420000000    -0.445083   
O204     O      0.515990000000     0.245310000000     0.193530000000    -0.444898   
O205     O      0.964340000000     0.236240000000     0.193520000000    -0.44142    
O206     O      0.964280000000     0.245440000000     0.283460000000    -0.441713   
O207     O      0.963920000000     0.285730000000     0.233440000000    -0.44081    
O208     O      0.964670000000     0.195980000000     0.243550000000    -0.440781   
O209     O      0.785080000000     0.016700000000     0.238730000000    -0.441301   
O210     O      0.694930000000     0.013370000000     0.243490000000    -0.440166   
O211     O      0.742890000000     0.015490000000     0.286880000000    -0.439096   
O212     O      0.737070000000     0.014810000000     0.196850000000    -0.442747   
O213     O      0.744820000000     0.462850000000     0.197070000000    -0.441942   
O214     O      0.738950000000     0.463110000000     0.287330000000    -0.443172   
O215     O      0.696920000000     0.461090000000     0.240140000000    -0.441875   
O216     O      0.786980000000     0.464670000000     0.245260000000    -0.445518   
O217     O      0.767570000000     0.491510000000     0.037390000000    -0.440218   
O218     O      0.767930000000     0.990820000000     0.446920000000    -0.445025   
O219     O      0.767750000000     0.036390000000     0.990460000000    -0.441195   
O220     O      0.767700000000     0.446010000000     0.493880000000    -0.442474   
O221     O      0.715190000000     0.446130000000     0.992420000000    -0.448882   
O222     O      0.715260000000     0.036310000000     0.491670000000    -0.444676   
O223     O      0.715440000000     0.489980000000     0.447030000000    -0.449515   
O224     O      0.715090000000     0.992290000000     0.037020000000    -0.446774   
O225     O      0.986390000000     0.216500000000     0.034790000000    -0.445428   
O226     O      0.491600000000     0.212480000000     0.444710000000    -0.441552   
O227     O      0.533950000000     0.214580000000     0.992680000000    -0.448329   
O228     O      0.943970000000     0.214310000000     0.488450000000    -0.447059   
O229     O      0.943860000000     0.266850000000     0.988470000000    -0.444224   
O230     O      0.534200000000     0.266430000000     0.484420000000    -0.443729   
O231     O      0.986510000000     0.264690000000     0.442150000000    -0.448372   
O232     O      0.491590000000     0.268690000000     0.032180000000    -0.437678   
O233     O      0.736670000000     0.194840000000     0.014770000000    -0.442859   
O234     O      0.741580000000     0.284960000000     0.019050000000    -0.439323   
O235     O      0.694000000000     0.241050000000     0.017140000000    -0.440094   
O236     O      0.784070000000     0.237120000000     0.016730000000    -0.440992   
O237     O      0.784130000000     0.245590000000     0.464920000000    -0.444803   
O238     O      0.693910000000     0.240910000000     0.464610000000    -0.444801   
O239     O      0.736150000000     0.287600000000     0.466920000000    -0.448402   
O240     O      0.742020000000     0.197570000000     0.462600000000    -0.440875   
O241     O      0.494150000000     0.037210000000     0.714620000000    -0.444753   
O242     O      0.988030000000     0.447150000000     0.711270000000    -0.443522   
O243     O      0.945980000000     0.995630000000     0.713290000000    -0.443373   
O244     O      0.536170000000     0.490470000000     0.712620000000    -0.445034   
O245     O      0.536190000000     0.989720000000     0.765210000000    -0.44755    
O246     O      0.946050000000     0.488590000000     0.765310000000    -0.446618   
O247     O      0.492410000000     0.444910000000     0.763520000000    -0.449704   
O248     O      0.989940000000     0.035110000000     0.766890000000    -0.441084   
O249     O      0.516410000000     0.196230000000     0.734830000000    -0.444545   
O250     O      0.515650000000     0.286270000000     0.742160000000    -0.444623   
O251     O      0.516060000000     0.237160000000     0.783420000000    -0.445086   
O252     O      0.515990000000     0.245310000000     0.693530000000    -0.44493    
O253     O      0.964340000000     0.236240000000     0.693520000000    -0.441456   
O254     O      0.964280000000     0.245440000000     0.783460000000    -0.441718   
O255     O      0.963920000000     0.285730000000     0.733440000000    -0.440816   
O256     O      0.964670000000     0.195980000000     0.743550000000    -0.440792   
O257     O      0.785080000000     0.016700000000     0.738730000000    -0.441313   
O258     O      0.694930000000     0.013370000000     0.743490000000    -0.440165   
O259     O      0.742890000000     0.015490000000     0.786880000000    -0.439122   
O260     O      0.737070000000     0.014810000000     0.696850000000    -0.442748   
O261     O      0.744820000000     0.462850000000     0.697070000000    -0.441877   
O262     O      0.738950000000     0.463110000000     0.787330000000    -0.443296   
O263     O      0.696920000000     0.461090000000     0.740140000000    -0.441893   
O264     O      0.786980000000     0.464670000000     0.745260000000    -0.44555    
O265     O      0.767570000000     0.491510000000     0.537390000000    -0.44382    
O266     O      0.767930000000     0.990820000000     0.946930000000    -0.444467   
O267     O      0.767750000000     0.036390000000     0.490450000000    -0.440795   
O268     O      0.767700000000     0.446010000000     0.993880000000    -0.443356   
O269     O      0.715190000000     0.446130000000     0.492420000000    -0.4485     
O270     O      0.715260000000     0.036310000000     0.991670000000    -0.445598   
O271     O      0.715440000000     0.489980000000     0.947030000000    -0.448845   
O272     O      0.715090000000     0.992290000000     0.537020000000    -0.450451   
O273     O      0.986390000000     0.216500000000     0.534790000000    -0.448927   
O274     O      0.491600000000     0.212480000000     0.944720000000    -0.441018   
O275     O      0.533950000000     0.214580000000     0.492680000000    -0.447302   
O276     O      0.943970000000     0.214310000000     0.988450000000    -0.447949   
O277     O      0.943860000000     0.266850000000     0.488460000000    -0.443825   
O278     O      0.534200000000     0.266430000000     0.984420000000    -0.444033   
O279     O      0.986510000000     0.264690000000     0.942150000000    -0.447671   
O280     O      0.491590000000     0.268690000000     0.532180000000    -0.441285   
O281     O      0.736670000000     0.194840000000     0.514770000000    -0.44675    
O282     O      0.741580000000     0.284960000000     0.519050000000    -0.443413   
O283     O      0.694000000000     0.241050000000     0.517140000000    -0.444104   
O284     O      0.784070000000     0.237120000000     0.516730000000    -0.444986   
O285     O      0.784130000000     0.245590000000     0.964920000000    -0.443362   
O286     O      0.693910000000     0.240910000000     0.964610000000    -0.443424   
O287     O      0.736150000000     0.287600000000     0.966920000000    -0.446923   
O288     O      0.742020000000     0.197570000000     0.962600000000    -0.439493   
O289     O      0.494150000000     0.537210000000     0.214620000000    -0.448204   
O290     O      0.988030000000     0.947150000000     0.211270000000    -0.442804   
O291     O      0.945980000000     0.495630000000     0.213290000000    -0.442356   
O292     O      0.536170000000     0.990470000000     0.212620000000    -0.44578    
O293     O      0.536190000000     0.489720000000     0.265200000000    -0.447227   
O294     O      0.946050000000     0.988590000000     0.265310000000    -0.446927   
O295     O      0.492410000000     0.944910000000     0.263520000000    -0.448986   
O296     O      0.989940000000     0.535110000000     0.266890000000    -0.444656   
O297     O      0.516410000000     0.696230000000     0.234830000000    -0.444558   
O298     O      0.515650000000     0.786270000000     0.242160000000    -0.444626   
O299     O      0.516060000000     0.737150000000     0.283420000000    -0.445066   
O300     O      0.515990000000     0.745310000000     0.193530000000    -0.444899   
O301     O      0.964340000000     0.736230000000     0.193520000000    -0.44139    
O302     O      0.964280000000     0.745440000000     0.283460000000    -0.441707   
O303     O      0.963920000000     0.785730000000     0.233440000000    -0.440821   
O304     O      0.964670000000     0.695980000000     0.243550000000    -0.440787   
O305     O      0.785080000000     0.516710000000     0.238730000000    -0.44517    
O306     O      0.694930000000     0.513370000000     0.243490000000    -0.444235   
O307     O      0.742890000000     0.515490000000     0.286880000000    -0.443268   
O308     O      0.737070000000     0.514810000000     0.196850000000    -0.446704   
O309     O      0.744820000000     0.962850000000     0.197070000000    -0.44055    
O310     O      0.738950000000     0.963110000000     0.287330000000    -0.441649   
O311     O      0.696920000000     0.961090000000     0.240140000000    -0.440423   
O312     O      0.786980000000     0.964670000000     0.245260000000    -0.444156   
O313     O      0.767570000000     0.991510000000     0.037390000000    -0.440587   
O314     O      0.767930000000     0.490820000000     0.446920000000    -0.444122   
O315     O      0.767750000000     0.536390000000     0.990460000000    -0.444803   
O316     O      0.767700000000     0.946010000000     0.493880000000    -0.441885   
O317     O      0.715190000000     0.946130000000     0.992420000000    -0.448413   
O318     O      0.715260000000     0.536310000000     0.491670000000    -0.44841    
O319     O      0.715440000000     0.989980000000     0.447030000000    -0.449839   
O320     O      0.715090000000     0.492290000000     0.037020000000    -0.445814   
O321     O      0.986390000000     0.716500000000     0.034790000000    -0.445516   
O322     O      0.491600000000     0.712480000000     0.444710000000    -0.441728   
O323     O      0.533950000000     0.714580000000     0.992680000000    -0.44843    
O324     O      0.943970000000     0.714310000000     0.488450000000    -0.447218   
O325     O      0.943860000000     0.766840000000     0.988470000000    -0.444457   
O326     O      0.534200000000     0.766430000000     0.484420000000    -0.443793   
O327     O      0.986510000000     0.764680000000     0.442150000000    -0.448597   
O328     O      0.491590000000     0.768690000000     0.032180000000    -0.43774    
O329     O      0.736670000000     0.694840000000     0.014770000000    -0.442882   
O330     O      0.741580000000     0.784960000000     0.019050000000    -0.439332   
O331     O      0.694000000000     0.741050000000     0.017140000000    -0.440095   
O332     O      0.784070000000     0.737120000000     0.016730000000    -0.440992   
O333     O      0.784130000000     0.745590000000     0.464920000000    -0.444819   
O334     O      0.693910000000     0.740910000000     0.464610000000    -0.444836   
O335     O      0.736150000000     0.787600000000     0.466920000000    -0.448411   
O336     O      0.742020000000     0.697570000000     0.462600000000    -0.440919   
O337     O      0.494150000000     0.537210000000     0.714620000000    -0.448279   
O338     O      0.988030000000     0.947150000000     0.711270000000    -0.442913   
O339     O      0.945980000000     0.495630000000     0.713290000000    -0.442438   
O340     O      0.536170000000     0.990470000000     0.712620000000    -0.445817   
O341     O      0.536190000000     0.489720000000     0.765210000000    -0.447108   
O342     O      0.946050000000     0.988590000000     0.765310000000    -0.446969   
O343     O      0.492410000000     0.944910000000     0.763520000000    -0.449022   
O344     O      0.989940000000     0.535110000000     0.766890000000    -0.444707   
O345     O      0.516410000000     0.696230000000     0.734830000000    -0.44458    
O346     O      0.515650000000     0.786270000000     0.742160000000    -0.444646   
O347     O      0.516060000000     0.737150000000     0.783420000000    -0.44507    
O348     O      0.515990000000     0.745310000000     0.693530000000    -0.444932   
O349     O      0.964340000000     0.736230000000     0.693520000000    -0.441426   
O350     O      0.964280000000     0.745440000000     0.783460000000    -0.441713   
O351     O      0.963920000000     0.785730000000     0.733440000000    -0.440828   
O352     O      0.964670000000     0.695980000000     0.743550000000    -0.440798   
O353     O      0.785080000000     0.516710000000     0.738730000000    -0.445192   
O354     O      0.694930000000     0.513370000000     0.743490000000    -0.444245   
O355     O      0.742890000000     0.515490000000     0.786880000000    -0.443302   
O356     O      0.737070000000     0.514810000000     0.696850000000    -0.446718   
O357     O      0.744820000000     0.962850000000     0.697070000000    -0.440483   
O358     O      0.738950000000     0.963110000000     0.787330000000    -0.441769   
O359     O      0.696920000000     0.961090000000     0.740140000000    -0.440437   
O360     O      0.786980000000     0.964670000000     0.745260000000    -0.444184   
O361     O      0.767570000000     0.991510000000     0.537390000000    -0.444189   
O362     O      0.767930000000     0.490820000000     0.946930000000    -0.443563   
O363     O      0.767750000000     0.536390000000     0.490450000000    -0.444402   
O364     O      0.767700000000     0.946010000000     0.993880000000    -0.442768   
O365     O      0.715190000000     0.946130000000     0.492420000000    -0.448031   
O366     O      0.715260000000     0.536310000000     0.991670000000    -0.449336   
O367     O      0.715440000000     0.989980000000     0.947030000000    -0.449169   
O368     O      0.715090000000     0.492290000000     0.537020000000    -0.449487   
O369     O      0.986390000000     0.716500000000     0.534790000000    -0.449025   
O370     O      0.491600000000     0.712480000000     0.944720000000    -0.441193   
O371     O      0.533950000000     0.714580000000     0.492680000000    -0.447401   
O372     O      0.943970000000     0.714310000000     0.988450000000    -0.44811    
O373     O      0.943860000000     0.766840000000     0.488460000000    -0.444058   
O374     O      0.534200000000     0.766430000000     0.984420000000    -0.444097   
O375     O      0.986510000000     0.764680000000     0.942150000000    -0.447893   
O376     O      0.491590000000     0.768690000000     0.532180000000    -0.441355   
O377     O      0.736670000000     0.694840000000     0.514770000000    -0.446786   
O378     O      0.741580000000     0.784960000000     0.519050000000    -0.443429   
O379     O      0.694000000000     0.741050000000     0.517140000000    -0.444114   
O380     O      0.784070000000     0.737120000000     0.516730000000    -0.444996   
O381     O      0.784130000000     0.745590000000     0.964920000000    -0.443374   
O382     O      0.693910000000     0.740910000000     0.964610000000    -0.443456   
O383     O      0.736150000000     0.787600000000     0.966920000000    -0.446929   
O384     O      0.742020000000     0.697570000000     0.962600000000    -0.439533   
S1       S      0.331270000000     0.187170000000     0.522420000000     6.87191e-05
S2       S      0.146420000000     0.193080000000     0.031150000000    -0.00353803 
S3       S      0.277950000000     0.398750000000     0.044440000000    -0.00284387 
S4       S      0.291140000000     0.149530000000     0.451890000000    -0.000143337
S5       S      0.187990000000     0.456790000000     0.334740000000    -0.00272148 
S6       S      0.185470000000     0.018640000000     0.150650000000    -0.00297065 
S7       S      0.538650000000     0.199580000000     0.396050000000     0.00068839 
S8       S      0.538620000000     0.281790000000     0.080640000000     0.00276324 
S9       S      0.145810000000     0.431600000000     0.270660000000     0.00253265 
S10      S      0.397940000000     0.044420000000     0.204970000000     0.00209774 
S11      S      0.456880000000     0.332780000000     0.183440000000     0.000900503
S12      S      0.458670000000     0.149490000000     0.294150000000     0.00114688 
S13      S      0.331270000000     0.187170000000     0.022420000000     0.00249327 
S14      S      0.146420000000     0.193080000000     0.531150000000    -0.00487415 
S15      S      0.277950000000     0.398750000000     0.544440000000    -0.00471967 
S16      S      0.291140000000     0.149530000000     0.951890000000    -0.00155771 
S17      S      0.187990000000     0.456790000000     0.834740000000    -0.00289354 
S18      S      0.185470000000     0.018640000000     0.650650000000    -0.00340995 
S19      S      0.538650000000     0.199580000000     0.896050000000     4.73611e-05
S20      S      0.538620000000     0.281790000000     0.580640000000     0.000967057
S21      S      0.145810000000     0.431600000000     0.770660000000     0.00240692 
S22      S      0.397940000000     0.044420000000     0.704980000000     0.00173579 
S23      S      0.456880000000     0.332780000000     0.683440000000     0.000463262
S24      S      0.458670000000     0.149490000000     0.794150000000     0.000968636
S25      S      0.331270000000     0.687170000000     0.522420000000    -0.000332145
S26      S      0.146420000000     0.693080000000     0.031150000000    -0.00385968 
S27      S      0.277950000000     0.898740000000     0.044440000000    -0.00326273 
S28      S      0.291140000000     0.649530000000     0.451890000000    -0.000639592
S29      S      0.187990000000     0.956790000000     0.334740000000    -0.00359782 
S30      S      0.185470000000     0.518640000000     0.150650000000    -0.00492026 
S31      S      0.538650000000     0.699580000000     0.396050000000     0.000228886
S32      S      0.538620000000     0.781790000000     0.080640000000     0.00252224 
S33      S      0.145810000000     0.931600000000     0.270660000000     0.00228187 
S34      S      0.397940000000     0.544420000000     0.204970000000     0.000220265
S35      S      0.456880000000     0.832780000000     0.183440000000     0.000686842
S36      S      0.458670000000     0.649490000000     0.294150000000     0.000626565
S37      S      0.331270000000     0.687170000000     0.022420000000     0.00210398 
S38      S      0.146420000000     0.693080000000     0.531150000000    -0.00520221 
S39      S      0.277950000000     0.898740000000     0.544440000000    -0.00514137 
S40      S      0.291140000000     0.649530000000     0.951890000000    -0.00205862 
S41      S      0.187990000000     0.956790000000     0.834740000000    -0.0037698  
S42      S      0.185470000000     0.518640000000     0.650650000000    -0.00536919 
S43      S      0.538650000000     0.699580000000     0.896050000000    -0.000414617
S44      S      0.538620000000     0.781790000000     0.580640000000     0.000721557
S45      S      0.145810000000     0.931600000000     0.770660000000     0.00215587 
S46      S      0.397940000000     0.544420000000     0.704980000000    -0.000149616
S47      S      0.456880000000     0.832780000000     0.683440000000     0.000248387
S48      S      0.458670000000     0.649490000000     0.794150000000     0.000446934
S49      S      0.831270000000     0.187170000000     0.522420000000    -9.20864e-05
S50      S      0.646420000000     0.193080000000     0.031150000000    -0.00399108 
S51      S      0.777950000000     0.398750000000     0.044440000000    -0.00303469 
S52      S      0.791140000000     0.149530000000     0.451890000000    -0.000280685
S53      S      0.688000000000     0.456790000000     0.334740000000    -0.00308183 
S54      S      0.685470000000     0.018640000000     0.150650000000    -0.00334963 
S55      S      0.038650000000     0.199580000000     0.396050000000     0.0027188  
S56      S      0.038620000000     0.281790000000     0.080640000000     0.00476236 
S57      S      0.645810000000     0.431600000000     0.270660000000     0.0020986  
S58      S      0.897940000000     0.044420000000     0.204970000000     0.00156198 
S59      S      0.956880000000     0.332780000000     0.183440000000    -0.000343687
S60      S      0.958670000000     0.149490000000     0.294150000000    -0.000113301
S61      S      0.831270000000     0.187170000000     0.022420000000     0.00233717 
S62      S      0.646420000000     0.193080000000     0.531150000000    -0.00533463 
S63      S      0.777950000000     0.398750000000     0.544440000000    -0.00491478 
S64      S      0.791140000000     0.149530000000     0.951890000000    -0.00169609 
S65      S      0.688000000000     0.456790000000     0.834740000000    -0.00325472 
S66      S      0.685470000000     0.018640000000     0.650650000000    -0.00379194 
S67      S      0.038650000000     0.199580000000     0.896050000000     0.00208182 
S68      S      0.038620000000     0.281790000000     0.580640000000     0.00298486 
S69      S      0.645810000000     0.431600000000     0.770660000000     0.00197167 
S70      S      0.897940000000     0.044420000000     0.704980000000     0.00119834 
S71      S      0.956880000000     0.332780000000     0.683440000000    -0.000784946
S72      S      0.958670000000     0.149490000000     0.794150000000    -0.000291942
S73      S      0.831270000000     0.687170000000     0.522420000000    -0.000493915
S74      S      0.646420000000     0.693080000000     0.031150000000    -0.00431559 
S75      S      0.777950000000     0.898740000000     0.044440000000    -0.00345366 
S76      S      0.791140000000     0.649530000000     0.451890000000    -0.000778136
S77      S      0.688000000000     0.956790000000     0.334740000000    -0.00396004 
S78      S      0.685470000000     0.518640000000     0.150650000000    -0.00530839 
S79      S      0.038650000000     0.699580000000     0.396050000000     0.00226858 
S80      S      0.038620000000     0.781790000000     0.080640000000     0.00452588 
S81      S      0.645810000000     0.931600000000     0.270660000000     0.00184688 
S82      S      0.897940000000     0.544420000000     0.204970000000    -0.000319159
S83      S      0.956880000000     0.832780000000     0.183440000000    -0.000558031
S84      S      0.958670000000     0.649490000000     0.294150000000    -0.000637127
S85      S      0.831270000000     0.687170000000     0.022420000000     0.00194692 
S86      S      0.646420000000     0.693080000000     0.531150000000    -0.00566557 
S87      S      0.777950000000     0.898740000000     0.544440000000    -0.00533656 
S88      S      0.791140000000     0.649530000000     0.951890000000    -0.00219819 
S89      S      0.688000000000     0.956790000000     0.834740000000    -0.00413285 
S90      S      0.685470000000     0.518640000000     0.650650000000    -0.00576036 
S91      S      0.038650000000     0.699580000000     0.896050000000     0.00162912 
S92      S      0.038620000000     0.781790000000     0.580640000000     0.00274389 
S93      S      0.645810000000     0.931600000000     0.770660000000     0.00171969 
S94      S      0.897940000000     0.544420000000     0.704980000000    -0.000690727
S95      S      0.956880000000     0.832780000000     0.683440000000    -0.0010005  
S96      S      0.958670000000     0.649490000000     0.794150000000    -0.000817148


