data_structure

_audit_creation_method RASPA-1.0
_audit_creation_date 2023-5-19
_audit_author_name 'Poobodin Mano'

_cell_length_a    42.4193
_cell_length_b    42.3924
_cell_length_c    42.3991
_cell_angle_alpha 90
_cell_angle_beta  90
_cell_angle_gamma 90
_cell_volume      76244.4

_symmetry_cell_setting          triclinic
_symmetry_space_group_name_Hall 'P 1'
_symmetry_space_group_name_H-M  'P 1'
_symmetry_Int_Tables_number     1

_symmetry_equiv_pos_as_xyz 'x,y,z'

loop_
_atom_site_label
_atom_site_type_symbol
_atom_site_fract_x
_atom_site_fract_y
_atom_site_fract_z
_atom_site_charge
C1       C      0.993100000000     0.435780000000     0.244000000000     0.429756   
C2       C      0.493720000000     0.056010000000     0.248990000000     0.428516   
C3       C      0.053280000000     0.495340000000     0.246460000000     0.430509   
C4       C      0.433170000000     0.496530000000     0.246630000000     0.43311    
C5       C      0.994150000000     0.242370000000     0.184210000000     0.422933   
C6       C      0.994490000000     0.249470000000     0.304250000000     0.417238   
C7       C      0.494900000000     0.305800000000     0.241670000000     0.434203   
C8       C      0.493840000000     0.185970000000     0.248290000000     0.433673   
C9       C      0.183040000000     0.495470000000     0.245740000000     0.435684   
C10      C      0.303260000000     0.499660000000     0.245950000000     0.431239   
C11      C      0.243690000000     0.995880000000     0.185440000000     0.424218   
C12      C      0.242830000000     0.998440000000     0.305620000000     0.41791    
C13      C      0.243050000000     0.497740000000     0.435580000000     0.434815   
C14      C      0.243040000000     0.994570000000     0.055540000000     0.4276     
C15      C      0.241840000000     0.436370000000     0.493450000000     0.426979   
C16      C      0.244420000000     0.056420000000     0.497700000000     0.428087   
C17      C      0.993310000000     0.242520000000     0.054180000000     0.432828   
C18      C      0.493960000000     0.250730000000     0.434200000000     0.434256   
C19      C      0.053960000000     0.246130000000     0.994620000000     0.429163   
C20      C      0.433770000000     0.247380000000     0.993970000000     0.425744   
C21      C      0.183760000000     0.245560000000     0.996160000000     0.426121   
C22      C      0.303920000000     0.248060000000     0.995110000000     0.42454    
C23      C      0.245780000000     0.186260000000     0.498450000000     0.435484   
C24      C      0.241920000000     0.306330000000     0.492790000000     0.430269   
C25      C      0.384830000000     0.228260000000     0.475000000000     0.0238129  
C26      C      0.385990000000     0.268390000000     0.013560000000    -0.00170492 
C27      C      0.352000000000     0.230020000000     0.474210000000     0.0315127  
C28      C      0.352910000000     0.268440000000     0.014900000000     0.117553   
C29      C      0.336950000000     0.291210000000     0.037240000000    -0.205289   
C30      C      0.102710000000     0.222730000000     0.480480000000     0.0279732  
C31      C      0.101990000000     0.269570000000     0.010590000000     0.00180647 
C32      C      0.135570000000     0.223760000000     0.479730000000     0.0333215  
C33      C      0.135060000000     0.269380000000     0.012200000000     0.116649   
C34      C      0.151250000000     0.295490000000     0.030400000000    -0.204605   
C35      C      0.262100000000     0.387550000000     0.010830000000     0.0305884  
C36      C      0.220570000000     0.388380000000     0.473830000000    -0.00583397 
C37      C      0.260940000000     0.354790000000     0.011430000000     0.0365361  
C38      C      0.221060000000     0.355160000000     0.472200000000     0.110182   
C39      C      0.198170000000     0.338930000000     0.450170000000    -0.203053   
C40      C      0.223270000000     0.105330000000     0.015160000000     0.0316724  
C41      C      0.269050000000     0.104470000000     0.983510000000    -0.00551734 
C42      C      0.224980000000     0.138210000000     0.016720000000     0.0389862  
C43      C      0.269760000000     0.137550000000     0.983190000000     0.114497   
C44      C      0.296330000000     0.153780000000     0.965780000000    -0.204074   
C45      C      0.227590000000     0.021300000000     0.354530000000     0.0309817  
C46      C      0.258630000000     0.475080000000     0.353710000000    -0.00535648 
C47      C      0.226490000000     0.019850000000     0.387430000000     0.039468   
C48      C      0.259320000000     0.474510000000     0.386750000000     0.113569   
C49      C      0.276500000000     0.447600000000     0.402790000000    -0.202739   
C50      C      0.220640000000     0.479010000000     0.104580000000     0.0272766  
C51      C      0.266910000000     0.009920000000     0.103470000000     0.00268879 
C52      C      0.222030000000     0.478220000000     0.137500000000     0.034706   
C53      C      0.267300000000     0.011030000000     0.136490000000     0.122229   
C54      C      0.294010000000     0.028290000000     0.152450000000    -0.207749   
C55      C      0.016740000000     0.234800000000     0.353260000000     0.0266786  
C56      C      0.472570000000     0.268640000000     0.352170000000    -0.00756274 
C57      C      0.015670000000     0.234470000000     0.386070000000     0.0377198  
C58      C      0.472780000000     0.270380000000     0.385360000000     0.113006   
C59      C      0.447870000000     0.290090000000     0.401590000000    -0.204761   
C60      C      0.016640000000     0.256980000000     0.135250000000     0.0301904  
C61      C      0.471370000000     0.224630000000     0.136100000000    -0.00402085 
C62      C      0.015460000000     0.257780000000     0.102450000000     0.0388592  
C63      C      0.471400000000     0.223320000000     0.102880000000     0.114569   
C64      C      0.445790000000     0.204690000000     0.086470000000    -0.205456   
C65      C      0.101840000000     0.508310000000     0.222130000000     0.0284307  
C66      C      0.101590000000     0.981520000000     0.270960000000    -0.00379553 
C67      C      0.134670000000     0.509440000000     0.222920000000     0.0349332  
C68      C      0.134720000000     0.980290000000     0.270720000000     0.112863   
C69      C      0.151460000000     0.964680000000     0.298100000000    -0.2039     
C70      C      0.384110000000     0.474440000000     0.260570000000     0.0293168  
C71      C      0.386190000000     0.023080000000     0.233700000000     0.00715411 
C72      C      0.351290000000     0.474990000000     0.258970000000     0.0315134  
C73      C      0.353160000000     0.025690000000     0.235270000000     0.109163   
C74      C      0.338630000000     0.056490000000     0.224560000000    -0.201143   
C75      C      0.979160000000     0.387250000000     0.219510000000     0.0266307  
C76      C      0.009510000000     0.387340000000     0.266170000000    -2.57863e-05
C77      C      0.978540000000     0.354290000000     0.220080000000     0.032943   
C78      C      0.010870000000     0.354290000000     0.265770000000     0.117289   
C79      C      0.028140000000     0.337800000000     0.292360000000    -0.204329   
C80      C      0.010050000000     0.104690000000     0.227320000000     0.0316635  
C81      C      0.478610000000     0.104290000000     0.273250000000    -0.00407936 
C82      C      0.010910000000     0.137480000000     0.228090000000     0.0375002  
C83      C      0.477400000000     0.137510000000     0.272890000000     0.114295   
C84      C      0.459330000000     0.154190000000     0.298740000000    -0.20464    
C85      C      0.993100000000     0.435780000000     0.744000000000     0.42977    
C86      C      0.493720000000     0.056010000000     0.748990000000     0.428779   
C87      C      0.053280000000     0.495340000000     0.746460000000     0.430526   
C88      C      0.433170000000     0.496530000000     0.746630000000     0.433128   
C89      C      0.994150000000     0.242370000000     0.684210000000     0.422875   
C90      C      0.994490000000     0.249470000000     0.804250000000     0.417237   
C91      C      0.494900000000     0.305800000000     0.741670000000     0.434191   
C92      C      0.493840000000     0.185970000000     0.748290000000     0.433666   
C93      C      0.183040000000     0.495470000000     0.745740000000     0.435692   
C94      C      0.303260000000     0.499660000000     0.745950000000     0.431243   
C95      C      0.243690000000     0.995880000000     0.685440000000     0.424098   
C96      C      0.242830000000     0.998440000000     0.805620000000     0.417917   
C97      C      0.243050000000     0.497740000000     0.935580000000     0.434232   
C98      C      0.243040000000     0.994570000000     0.555540000000     0.428739   
C99      C      0.241840000000     0.436370000000     0.993450000000     0.425808   
C100     C      0.244420000000     0.056420000000     0.997700000000     0.419694   
C101     C      0.993310000000     0.242520000000     0.554180000000     0.433713   
C102     C      0.493960000000     0.250730000000     0.934200000000     0.433914   
C103     C      0.053960000000     0.246130000000     0.494620000000     0.430137   
C104     C      0.433770000000     0.247380000000     0.493970000000     0.426747   
C105     C      0.183760000000     0.245560000000     0.496160000000     0.433633   
C106     C      0.303920000000     0.248060000000     0.495110000000     0.431995   
C107     C      0.245780000000     0.186260000000     0.998450000000     0.428132   
C108     C      0.241920000000     0.306330000000     0.992790000000     0.422657   
C109     C      0.384830000000     0.228260000000     0.975000000000     0.0230311  
C110     C      0.385990000000     0.268390000000     0.513560000000    -0.00665434 
C111     C      0.352000000000     0.230020000000     0.974210000000     0.0303887  
C112     C      0.352910000000     0.268440000000     0.514900000000     0.113369   
C113     C      0.336950000000     0.291210000000     0.537240000000    -0.20403    
C114     C      0.102710000000     0.222730000000     0.980480000000     0.0270843  
C115     C      0.101990000000     0.269570000000     0.510590000000    -0.00311133 
C116     C      0.135570000000     0.223760000000     0.979730000000     0.032107   
C117     C      0.135060000000     0.269380000000     0.512200000000     0.112206   
C118     C      0.151250000000     0.295490000000     0.530400000000    -0.203048   
C119     C      0.262100000000     0.387550000000     0.510830000000     0.025557   
C120     C      0.220570000000     0.388380000000     0.973830000000    -0.00659687 
C121     C      0.260940000000     0.354790000000     0.511430000000     0.0322842  
C122     C      0.221060000000     0.355160000000     0.972200000000     0.108741   
C123     C      0.198170000000     0.338930000000     0.950170000000    -0.202443   
C124     C      0.223270000000     0.105330000000     0.515160000000     0.0272541  
C125     C      0.269050000000     0.104470000000     0.483510000000    -0.00447143 
C126     C      0.224980000000     0.138210000000     0.516720000000     0.0344351  
C127     C      0.269760000000     0.137550000000     0.483190000000     0.115638   
C128     C      0.296330000000     0.153780000000     0.465770000000    -0.204568   
C129     C      0.227590000000     0.021300000000     0.854530000000     0.0309532  
C130     C      0.258630000000     0.475080000000     0.853700000000    -0.0052882  
C131     C      0.226490000000     0.019850000000     0.887430000000     0.0393502  
C132     C      0.259320000000     0.474510000000     0.886750000000     0.113379   
C133     C      0.276500000000     0.447600000000     0.902800000000    -0.2026     
C134     C      0.220640000000     0.479010000000     0.604580000000     0.0271298  
C135     C      0.266910000000     0.009920000000     0.603470000000     0.00260757 
C136     C      0.222030000000     0.478220000000     0.637500000000     0.0344963  
C137     C      0.267300000000     0.011030000000     0.636490000000     0.121948   
C138     C      0.294010000000     0.028290000000     0.652450000000    -0.20757    
C139     C      0.016740000000     0.234800000000     0.853260000000     0.0266593  
C140     C      0.472570000000     0.268640000000     0.852170000000    -0.00754457 
C141     C      0.015670000000     0.234470000000     0.886070000000     0.0376179  
C142     C      0.472780000000     0.270380000000     0.885360000000     0.112847   
C143     C      0.447870000000     0.290090000000     0.901590000000    -0.204575   
C144     C      0.016640000000     0.256980000000     0.635250000000     0.0300398  
C145     C      0.471370000000     0.224630000000     0.636100000000    -0.00403523 
C146     C      0.015460000000     0.257780000000     0.602450000000     0.0386276  
C147     C      0.471400000000     0.223320000000     0.602880000000     0.114106   
C148     C      0.445790000000     0.204690000000     0.586470000000    -0.204961   
C149     C      0.101840000000     0.508310000000     0.722130000000     0.0283696  
C150     C      0.101590000000     0.981520000000     0.770960000000    -0.00382538 
C151     C      0.134670000000     0.509440000000     0.722920000000     0.0348771  
C152     C      0.134720000000     0.980290000000     0.770710000000     0.11282    
C153     C      0.151460000000     0.964680000000     0.798100000000    -0.203806   
C154     C      0.384110000000     0.474440000000     0.760570000000     0.0292283  
C155     C      0.386190000000     0.023080000000     0.733700000000     0.0071135  
C156     C      0.351290000000     0.474990000000     0.758960000000     0.0315242  
C157     C      0.353160000000     0.025690000000     0.735270000000     0.109091   
C158     C      0.338630000000     0.056490000000     0.724560000000    -0.201082   
C159     C      0.979160000000     0.387250000000     0.719510000000     0.0265416  
C160     C      0.009510000000     0.387340000000     0.766170000000    -5.10293e-06
C161     C      0.978540000000     0.354290000000     0.720080000000     0.0329454  
C162     C      0.010870000000     0.354290000000     0.765770000000     0.117165   
C163     C      0.028140000000     0.337800000000     0.792360000000    -0.204235   
C164     C      0.010050000000     0.104690000000     0.727320000000     0.0315583  
C165     C      0.478610000000     0.104290000000     0.773250000000    -0.00402538 
C166     C      0.010910000000     0.137480000000     0.728090000000     0.0374789  
C167     C      0.477400000000     0.137510000000     0.772890000000     0.114209   
C168     C      0.459330000000     0.154190000000     0.798740000000    -0.204567   
C169     C      0.993100000000     0.935780000000     0.244000000000     0.428859   
C170     C      0.493720000000     0.556010000000     0.248990000000     0.430083   
C171     C      0.053280000000     0.995340000000     0.246460000000     0.428838   
C172     C      0.433170000000     0.996530000000     0.246630000000     0.421477   
C173     C      0.994150000000     0.742370000000     0.184210000000     0.422889   
C174     C      0.994490000000     0.749470000000     0.304250000000     0.417229   
C175     C      0.494900000000     0.805800000000     0.241670000000     0.434198   
C176     C      0.493840000000     0.685970000000     0.248290000000     0.433622   
C177     C      0.183040000000     0.995470000000     0.245740000000     0.425325   
C178     C      0.303260000000     0.999660000000     0.245950000000     0.413624   
C179     C      0.243690000000     0.495880000000     0.185440000000     0.434898   
C180     C      0.242830000000     0.498440000000     0.305620000000     0.428073   
C181     C      0.243050000000     0.997740000000     0.435580000000     0.423025   
C182     C      0.243040000000     0.494570000000     0.055540000000     0.429287   
C183     C      0.241840000000     0.936370000000     0.493450000000     0.426196   
C184     C      0.244420000000     0.556420000000     0.497700000000     0.429666   
C185     C      0.993310000000     0.742520000000     0.054180000000     0.433112   
C186     C      0.493960000000     0.750730000000     0.434200000000     0.434286   
C187     C      0.053960000000     0.746130000000     0.994620000000     0.429186   
C188     C      0.433770000000     0.747380000000     0.993970000000     0.425785   
C189     C      0.183760000000     0.745560000000     0.996160000000     0.426099   
C190     C      0.303920000000     0.748060000000     0.995110000000     0.424533   
C191     C      0.245780000000     0.686260000000     0.498450000000     0.435439   
C192     C      0.241920000000     0.806330000000     0.492790000000     0.430276   
C193     C      0.384830000000     0.728260000000     0.475000000000     0.0237548  
C194     C      0.385990000000     0.768390000000     0.013560000000    -0.00170747 
C195     C      0.352000000000     0.730020000000     0.474210000000     0.0314489  
C196     C      0.352910000000     0.768440000000     0.014900000000     0.117468   
C197     C      0.336950000000     0.791210000000     0.037240000000    -0.205188   
C198     C      0.102710000000     0.722730000000     0.480480000000     0.0278603  
C199     C      0.101990000000     0.769570000000     0.010590000000     0.00182278 
C200     C      0.135570000000     0.723760000000     0.479730000000     0.0333016  
C201     C      0.135060000000     0.769380000000     0.012200000000     0.116495   
C202     C      0.151250000000     0.795490000000     0.030400000000    -0.204478   
C203     C      0.262100000000     0.887550000000     0.010830000000     0.0304906  
C204     C      0.220570000000     0.888380000000     0.473830000000    -0.0059266  
C205     C      0.260940000000     0.854790000000     0.011430000000     0.0364646  
C206     C      0.221060000000     0.855160000000     0.472200000000     0.110088   
C207     C      0.198170000000     0.838930000000     0.450170000000    -0.20296    
C208     C      0.223270000000     0.605330000000     0.015160000000     0.0314781  
C209     C      0.269050000000     0.604470000000     0.983510000000    -0.00566347 
C210     C      0.224980000000     0.638210000000     0.016720000000     0.0387159  
C211     C      0.269760000000     0.637550000000     0.983190000000     0.11411    
C212     C      0.296330000000     0.653780000000     0.965780000000    -0.203834   
C213     C      0.227590000000     0.521300000000     0.354530000000     0.0246336  
C214     C      0.258630000000     0.975080000000     0.353710000000    -0.00665681 
C215     C      0.226490000000     0.519850000000     0.387430000000     0.0332778  
C216     C      0.259320000000     0.974510000000     0.386750000000     0.112131   
C217     C      0.276500000000     0.947600000000     0.402790000000    -0.202177   
C218     C      0.220640000000     0.979010000000     0.104580000000     0.0259787  
C219     C      0.266910000000     0.509920000000     0.103470000000    -0.00414055 
C220     C      0.222030000000     0.978220000000     0.137500000000     0.0329403  
C221     C      0.267300000000     0.511030000000     0.136490000000     0.116271   
C222     C      0.294010000000     0.528290000000     0.152450000000    -0.205767   
C223     C      0.016740000000     0.734800000000     0.353260000000     0.0266398  
C224     C      0.472570000000     0.768640000000     0.352170000000    -0.0075707  
C225     C      0.015670000000     0.734470000000     0.386070000000     0.0376419  
C226     C      0.472780000000     0.770380000000     0.385360000000     0.1129     
C227     C      0.447870000000     0.790090000000     0.401590000000    -0.20465    
C228     C      0.016640000000     0.756980000000     0.135250000000     0.0301248  
C229     C      0.471370000000     0.724620000000     0.136100000000    -0.00413852 
C230     C      0.015460000000     0.757780000000     0.102450000000     0.0387994  
C231     C      0.471400000000     0.723320000000     0.102880000000     0.114406   
C232     C      0.445790000000     0.704690000000     0.086470000000    -0.205179   
C233     C      0.101840000000     0.008320000000     0.222130000000     0.035494   
C234     C      0.101590000000     0.481520000000     0.270960000000    -0.00275971 
C235     C      0.134670000000     0.009440000000     0.222920000000     0.0410491  
C236     C      0.134720000000     0.480290000000     0.270720000000     0.114744   
C237     C      0.151460000000     0.464680000000     0.298100000000    -0.20476    
C238     C      0.384110000000     0.974450000000     0.260570000000     0.0307699  
C239     C      0.386190000000     0.523080000000     0.233700000000    -0.00149508 
C240     C      0.351290000000     0.974990000000     0.258970000000     0.0221408  
C241     C      0.353160000000     0.525690000000     0.235270000000     0.110665   
C242     C      0.338630000000     0.556490000000     0.224560000000    -0.202512   
C243     C      0.979160000000     0.887250000000     0.219510000000     0.0264421  
C244     C      0.009510000000     0.887340000000     0.266170000000    -0.000126566
C245     C      0.978540000000     0.854290000000     0.220080000000     0.032856   
C246     C      0.010870000000     0.854290000000     0.265770000000     0.117227   
C247     C      0.028140000000     0.837810000000     0.292360000000    -0.204221   
C248     C      0.010050000000     0.604690000000     0.227320000000     0.0314619  
C249     C      0.478610000000     0.604290000000     0.273250000000    -0.00426654 
C250     C      0.010910000000     0.637470000000     0.228090000000     0.0371949  
C251     C      0.477400000000     0.637510000000     0.272890000000     0.113906   
C252     C      0.459330000000     0.654190000000     0.298740000000    -0.204406   
C253     C      0.993100000000     0.935780000000     0.744000000000     0.428871   
C254     C      0.493720000000     0.556010000000     0.748990000000     0.430352   
C255     C      0.053280000000     0.995340000000     0.746460000000     0.428854   
C256     C      0.433170000000     0.996530000000     0.746630000000     0.421478   
C257     C      0.994150000000     0.742370000000     0.684210000000     0.422831   
C258     C      0.994490000000     0.749470000000     0.804250000000     0.417229   
C259     C      0.494900000000     0.805800000000     0.741670000000     0.434186   
C260     C      0.493840000000     0.685970000000     0.748290000000     0.433615   
C261     C      0.183040000000     0.995470000000     0.745740000000     0.425321   
C262     C      0.303260000000     0.999660000000     0.745950000000     0.413608   
C263     C      0.243690000000     0.495880000000     0.685440000000     0.434795   
C264     C      0.242830000000     0.498440000000     0.805620000000     0.428085   
C265     C      0.243050000000     0.997740000000     0.935580000000     0.422458   
C266     C      0.243040000000     0.494570000000     0.555540000000     0.430432   
C267     C      0.241840000000     0.936370000000     0.993450000000     0.425031   
C268     C      0.244420000000     0.556420000000     0.997700000000     0.421231   
C269     C      0.993310000000     0.742520000000     0.554180000000     0.434      
C270     C      0.493960000000     0.750730000000     0.934200000000     0.433943   
C271     C      0.053960000000     0.746130000000     0.494620000000     0.43016    
C272     C      0.433770000000     0.747380000000     0.493970000000     0.426789   
C273     C      0.183760000000     0.745560000000     0.496160000000     0.433622   
C274     C      0.303920000000     0.748060000000     0.495110000000     0.431998   
C275     C      0.245780000000     0.686260000000     0.998450000000     0.428072   
C276     C      0.241920000000     0.806330000000     0.992790000000     0.422657   
C277     C      0.384830000000     0.728260000000     0.975000000000     0.0229722  
C278     C      0.385990000000     0.768390000000     0.513560000000    -0.00666672 
C279     C      0.352000000000     0.730020000000     0.974210000000     0.0303237  
C280     C      0.352910000000     0.768440000000     0.514900000000     0.113275   
C281     C      0.336950000000     0.791210000000     0.537240000000    -0.203925   
C282     C      0.102710000000     0.722730000000     0.980480000000     0.0269707  
C283     C      0.101990000000     0.769570000000     0.510590000000    -0.00310555 
C284     C      0.135570000000     0.723760000000     0.979730000000     0.0320855  
C285     C      0.135060000000     0.769380000000     0.512200000000     0.112045   
C286     C      0.151250000000     0.795490000000     0.530400000000    -0.202919   
C287     C      0.262100000000     0.887550000000     0.510830000000     0.0254588  
C288     C      0.220570000000     0.888380000000     0.973830000000    -0.00668869 
C289     C      0.260940000000     0.854790000000     0.511430000000     0.0322076  
C290     C      0.221060000000     0.855160000000     0.972200000000     0.108648   
C291     C      0.198170000000     0.838930000000     0.950170000000    -0.202351   
C292     C      0.223270000000     0.605330000000     0.515160000000     0.027039   
C293     C      0.269050000000     0.604470000000     0.483510000000    -0.00461478 
C294     C      0.224980000000     0.638210000000     0.516720000000     0.0341501  
C295     C      0.269760000000     0.637550000000     0.483190000000     0.115253   
C296     C      0.296330000000     0.653780000000     0.465770000000    -0.20433    
C297     C      0.227590000000     0.521300000000     0.854530000000     0.0246022  
C298     C      0.258630000000     0.975080000000     0.853700000000    -0.00658717 
C299     C      0.226490000000     0.519850000000     0.887430000000     0.0331628  
C300     C      0.259320000000     0.974510000000     0.886750000000     0.111943   
C301     C      0.276500000000     0.947600000000     0.902800000000    -0.202039   
C302     C      0.220640000000     0.979010000000     0.604580000000     0.0258292  
C303     C      0.266910000000     0.509920000000     0.603470000000    -0.00424894 
C304     C      0.222030000000     0.978220000000     0.637500000000     0.0327267  
C305     C      0.267300000000     0.511030000000     0.636490000000     0.115974   
C306     C      0.294010000000     0.528290000000     0.652450000000    -0.205583   
C307     C      0.016740000000     0.734800000000     0.853260000000     0.0266205  
C308     C      0.472570000000     0.768640000000     0.852170000000    -0.00755255 
C309     C      0.015670000000     0.734470000000     0.886070000000     0.0375398  
C310     C      0.472780000000     0.770380000000     0.885360000000     0.112742   
C311     C      0.447870000000     0.790090000000     0.901590000000    -0.204463   
C312     C      0.016640000000     0.756980000000     0.635250000000     0.0299738  
C313     C      0.471370000000     0.724620000000     0.636100000000    -0.00415301 
C314     C      0.015460000000     0.757780000000     0.602450000000     0.0385672  
C315     C      0.471400000000     0.723320000000     0.602880000000     0.113941   
C316     C      0.445790000000     0.704690000000     0.586470000000    -0.204683   
C317     C      0.101840000000     0.008320000000     0.722130000000     0.0354438  
C318     C      0.101590000000     0.481520000000     0.770960000000    -0.00278868 
C319     C      0.134670000000     0.009440000000     0.722920000000     0.0410023  
C320     C      0.134720000000     0.480290000000     0.770710000000     0.114702   
C321     C      0.151460000000     0.464680000000     0.798100000000    -0.204666   
C322     C      0.384110000000     0.974450000000     0.760570000000     0.0306848  
C323     C      0.386190000000     0.523080000000     0.733700000000    -0.00154787 
C324     C      0.351290000000     0.974990000000     0.758960000000     0.0221387  
C325     C      0.353160000000     0.525690000000     0.735270000000     0.110594   
C326     C      0.338630000000     0.556490000000     0.724560000000    -0.202452   
C327     C      0.979160000000     0.887250000000     0.719510000000     0.0263527  
C328     C      0.009510000000     0.887340000000     0.766170000000    -0.000106033
C329     C      0.978540000000     0.854290000000     0.720080000000     0.0328583  
C330     C      0.010870000000     0.854290000000     0.765770000000     0.117104   
C331     C      0.028140000000     0.837810000000     0.792360000000    -0.204127   
C332     C      0.010050000000     0.604690000000     0.727320000000     0.0313561  
C333     C      0.478610000000     0.604290000000     0.773250000000    -0.00421241 
C334     C      0.010910000000     0.637470000000     0.728090000000     0.0371729  
C335     C      0.477400000000     0.637510000000     0.772890000000     0.113819   
C336     C      0.459330000000     0.654190000000     0.798740000000    -0.204333   
C337     C      0.493100000000     0.435780000000     0.244000000000     0.430466   
C338     C      0.993720000000     0.056010000000     0.248990000000     0.427826   
C339     C      0.553280000000     0.495340000000     0.246460000000     0.431105   
C340     C      0.933180000000     0.496530000000     0.246630000000     0.43288    
C341     C      0.494150000000     0.242370000000     0.184210000000     0.428466   
C342     C      0.494490000000     0.249470000000     0.304250000000     0.422863   
C343     C      0.994900000000     0.305800000000     0.241670000000     0.428557   
C344     C      0.993840000000     0.185970000000     0.248290000000     0.428144   
C345     C      0.683040000000     0.495470000000     0.245740000000     0.435646   
C346     C      0.803260000000     0.499660000000     0.245950000000     0.431293   
C347     C      0.743690000000     0.995880000000     0.185440000000     0.424184   
C348     C      0.742830000000     0.998440000000     0.305620000000     0.417889   
C349     C      0.743050000000     0.497740000000     0.435580000000     0.434821   
C350     C      0.743050000000     0.994570000000     0.055540000000     0.42761    
C351     C      0.741840000000     0.436370000000     0.493450000000     0.426991   
C352     C      0.744420000000     0.056420000000     0.497700000000     0.428093   
C353     C      0.493310000000     0.242520000000     0.054180000000     0.433525   
C354     C      0.993960000000     0.250730000000     0.434200000000     0.433547   
C355     C      0.553960000000     0.246130000000     0.994620000000     0.42979    
C356     C      0.933770000000     0.247380000000     0.993970000000     0.42545    
C357     C      0.683760000000     0.245560000000     0.996160000000     0.426076   
C358     C      0.803910000000     0.248060000000     0.995110000000     0.424622   
C359     C      0.745780000000     0.186260000000     0.498450000000     0.435535   
C360     C      0.741920000000     0.306330000000     0.492790000000     0.430299   
C361     C      0.884830000000     0.228260000000     0.475000000000     0.0237778  
C362     C      0.885990000000     0.268390000000     0.013560000000    -0.00171026 
C363     C      0.852000000000     0.230020000000     0.474210000000     0.0314872  
C364     C      0.852900000000     0.268440000000     0.014900000000     0.11755    
C365     C      0.836950000000     0.291210000000     0.037240000000    -0.205289   
C366     C      0.602710000000     0.222730000000     0.480480000000     0.0278037  
C367     C      0.601980000000     0.269570000000     0.010590000000     0.00175394 
C368     C      0.635570000000     0.223760000000     0.479730000000     0.0331665  
C369     C      0.635060000000     0.269380000000     0.012200000000     0.116434   
C370     C      0.651250000000     0.295490000000     0.030400000000    -0.204476   
C371     C      0.762100000000     0.387550000000     0.010830000000     0.0305562  
C372     C      0.720570000000     0.388380000000     0.473830000000    -0.00585167 
C373     C      0.760940000000     0.354790000000     0.011430000000     0.0365296  
C374     C      0.721060000000     0.355160000000     0.472200000000     0.11011    
C375     C      0.698170000000     0.338930000000     0.450170000000    -0.202974   
C376     C      0.723270000000     0.105330000000     0.015160000000     0.0316321  
C377     C      0.769050000000     0.104470000000     0.983510000000    -0.00553104 
C378     C      0.724980000000     0.138210000000     0.016720000000     0.0389549  
C379     C      0.769760000000     0.137550000000     0.983190000000     0.114453   
C380     C      0.796330000000     0.153780000000     0.965780000000    -0.204031   
C381     C      0.727590000000     0.021300000000     0.354530000000     0.0310223  
C382     C      0.758630000000     0.475080000000     0.353710000000    -0.00538234 
C383     C      0.726480000000     0.019850000000     0.387430000000     0.0393911  
C384     C      0.759320000000     0.474510000000     0.386750000000     0.113477   
C385     C      0.776500000000     0.447600000000     0.402790000000    -0.202672   
C386     C      0.720650000000     0.479010000000     0.104580000000     0.0273247  
C387     C      0.766910000000     0.009920000000     0.103470000000     0.00264879 
C388     C      0.722030000000     0.478220000000     0.137500000000     0.0346069  
C389     C      0.767300000000     0.011030000000     0.136490000000     0.122203   
C390     C      0.794010000000     0.028290000000     0.152450000000    -0.207709   
C391     C      0.516740000000     0.234800000000     0.353260000000     0.0234597  
C392     C      0.972570000000     0.268640000000     0.352170000000    -0.00847283 
C393     C      0.515670000000     0.234470000000     0.386070000000     0.03391    
C394     C      0.972780000000     0.270380000000     0.385360000000     0.112368   
C395     C      0.947870000000     0.290090000000     0.401590000000    -0.204555   
C396     C      0.516640000000     0.256980000000     0.135250000000     0.0268972  
C397     C      0.971370000000     0.224630000000     0.136100000000    -0.00491667 
C398     C      0.515460000000     0.257780000000     0.102450000000     0.0350921  
C399     C      0.971400000000     0.223320000000     0.102880000000     0.114013   
C400     C      0.945790000000     0.204690000000     0.086470000000    -0.205322   
C401     C      0.601840000000     0.508310000000     0.222130000000     0.0282378  
C402     C      0.601590000000     0.981520000000     0.270960000000    -0.00395747 
C403     C      0.634670000000     0.509440000000     0.222920000000     0.0347718  
C404     C      0.634720000000     0.980290000000     0.270720000000     0.112675   
C405     C      0.651460000000     0.964680000000     0.298100000000    -0.203883   
C406     C      0.884110000000     0.474440000000     0.260570000000     0.0292344  
C407     C      0.886190000000     0.023080000000     0.233700000000     0.00709176 
C408     C      0.851290000000     0.474990000000     0.258970000000     0.0314933  
C409     C      0.853160000000     0.025690000000     0.235270000000     0.109121   
C410     C      0.838630000000     0.056490000000     0.224560000000    -0.201102   
C411     C      0.479160000000     0.387250000000     0.219510000000     0.0272873  
C412     C      0.509510000000     0.387340000000     0.266170000000    -0.00373285 
C413     C      0.478540000000     0.354290000000     0.220080000000     0.0338587  
C414     C      0.510870000000     0.354290000000     0.265770000000     0.113993   
C415     C      0.528140000000     0.337800000000     0.292360000000    -0.203165   
C416     C      0.510050000000     0.104690000000     0.227320000000     0.0278819  
C417     C      0.978610000000     0.104290000000     0.273250000000    -0.00458524 
C418     C      0.510910000000     0.137480000000     0.228090000000     0.0342168  
C419     C      0.977400000000     0.137510000000     0.272890000000     0.113305   
C420     C      0.959330000000     0.154190000000     0.298740000000    -0.204205   
C421     C      0.493100000000     0.435780000000     0.744000000000     0.430481   
C422     C      0.993720000000     0.056010000000     0.748990000000     0.428087   
C423     C      0.553280000000     0.495340000000     0.746460000000     0.431123   
C424     C      0.933180000000     0.496530000000     0.746630000000     0.432897   
C425     C      0.494150000000     0.242370000000     0.684210000000     0.428422   
C426     C      0.494490000000     0.249470000000     0.804250000000     0.422871   
C427     C      0.994900000000     0.305800000000     0.741670000000     0.428533   
C428     C      0.993840000000     0.185970000000     0.748290000000     0.428125   
C429     C      0.683040000000     0.495470000000     0.745740000000     0.435654   
C430     C      0.803260000000     0.499660000000     0.745950000000     0.431297   
C431     C      0.743690000000     0.995880000000     0.685440000000     0.424064   
C432     C      0.742830000000     0.998440000000     0.805620000000     0.417897   
C433     C      0.743050000000     0.497740000000     0.935580000000     0.434237   
C434     C      0.743050000000     0.994570000000     0.555540000000     0.428751   
C435     C      0.741840000000     0.436370000000     0.993450000000     0.425818   
C436     C      0.744420000000     0.056420000000     0.997700000000     0.419683   
C437     C      0.493310000000     0.242520000000     0.554180000000     0.434412   
C438     C      0.993960000000     0.250730000000     0.934200000000     0.433207   
C439     C      0.553960000000     0.246130000000     0.494620000000     0.430765   
C440     C      0.933770000000     0.247380000000     0.493970000000     0.426451   
C441     C      0.683760000000     0.245560000000     0.496160000000     0.433604   
C442     C      0.803910000000     0.248060000000     0.495110000000     0.432087   
C443     C      0.745780000000     0.186260000000     0.998450000000     0.428171   
C444     C      0.741920000000     0.306330000000     0.992790000000     0.422674   
C445     C      0.884830000000     0.228260000000     0.975000000000     0.0229958  
C446     C      0.885990000000     0.268390000000     0.513560000000    -0.00665983 
C447     C      0.852000000000     0.230020000000     0.974210000000     0.0303635  
C448     C      0.852900000000     0.268440000000     0.514900000000     0.113358   
C449     C      0.836950000000     0.291210000000     0.537240000000    -0.204025   
C450     C      0.602710000000     0.222730000000     0.980480000000     0.0269133  
C451     C      0.601980000000     0.269570000000     0.510590000000    -0.00319046 
C452     C      0.635570000000     0.223760000000     0.979730000000     0.0319483  
C453     C      0.635060000000     0.269380000000     0.512200000000     0.111979   
C454     C      0.651250000000     0.295490000000     0.530400000000    -0.202915   
C455     C      0.762100000000     0.387550000000     0.510830000000     0.0255146  
C456     C      0.720570000000     0.388380000000     0.973830000000    -0.0066156  
C457     C      0.760940000000     0.354790000000     0.511430000000     0.0322697  
C458     C      0.721060000000     0.355160000000     0.972200000000     0.108666   
C459     C      0.698170000000     0.338930000000     0.950170000000    -0.202363   
C460     C      0.723270000000     0.105330000000     0.515160000000     0.0272052  
C461     C      0.769050000000     0.104470000000     0.483510000000    -0.00448376 
C462     C      0.724980000000     0.138210000000     0.516720000000     0.0343951  
C463     C      0.769760000000     0.137550000000     0.483190000000     0.115595   
C464     C      0.796330000000     0.153780000000     0.465770000000    -0.204525   
C465     C      0.727590000000     0.021300000000     0.854530000000     0.0309938  
C466     C      0.758630000000     0.475080000000     0.853700000000    -0.00531415 
C467     C      0.726480000000     0.019850000000     0.887430000000     0.039273   
C468     C      0.759320000000     0.474510000000     0.886750000000     0.113288   
C469     C      0.776500000000     0.447600000000     0.902800000000    -0.202534   
C470     C      0.720650000000     0.479010000000     0.604580000000     0.0271774  
C471     C      0.766910000000     0.009920000000     0.603470000000     0.00256756 
C472     C      0.722030000000     0.478220000000     0.637500000000     0.0343966  
C473     C      0.767300000000     0.011030000000     0.636490000000     0.121922   
C474     C      0.794010000000     0.028290000000     0.652450000000    -0.207529   
C475     C      0.516740000000     0.234800000000     0.853260000000     0.0234349  
C476     C      0.972570000000     0.268640000000     0.852170000000    -0.00845533 
C477     C      0.515670000000     0.234470000000     0.886070000000     0.0338053  
C478     C      0.972780000000     0.270380000000     0.885360000000     0.11221    
C479     C      0.947870000000     0.290090000000     0.901590000000    -0.204368   
C480     C      0.516640000000     0.256980000000     0.635250000000     0.0267348  
C481     C      0.971370000000     0.224630000000     0.636100000000    -0.00493371 
C482     C      0.515460000000     0.257780000000     0.602450000000     0.0348387  
C483     C      0.971400000000     0.223320000000     0.602880000000     0.113548   
C484     C      0.945790000000     0.204690000000     0.586470000000    -0.204825   
C485     C      0.601840000000     0.508310000000     0.722130000000     0.028176   
C486     C      0.601590000000     0.981520000000     0.770960000000    -0.00398773 
C487     C      0.634670000000     0.509440000000     0.722920000000     0.034715   
C488     C      0.634720000000     0.980290000000     0.770710000000     0.112632   
C489     C      0.651460000000     0.964680000000     0.798100000000    -0.203789   
C490     C      0.884110000000     0.474440000000     0.760570000000     0.0291459  
C491     C      0.886190000000     0.023080000000     0.733700000000     0.00705106 
C492     C      0.851290000000     0.474990000000     0.758960000000     0.0315041  
C493     C      0.853160000000     0.025690000000     0.735270000000     0.109048   
C494     C      0.838630000000     0.056490000000     0.724560000000    -0.201041   
C495     C      0.479160000000     0.387250000000     0.719510000000     0.0271992  
C496     C      0.509510000000     0.387340000000     0.766170000000    -0.00372221 
C497     C      0.478540000000     0.354290000000     0.720080000000     0.0338629  
C498     C      0.510870000000     0.354290000000     0.765770000000     0.113862   
C499     C      0.528140000000     0.337800000000     0.792360000000    -0.203069   
C500     C      0.510050000000     0.104690000000     0.727320000000     0.0277679  
C501     C      0.978610000000     0.104290000000     0.773250000000    -0.00453162 
C502     C      0.510910000000     0.137480000000     0.728090000000     0.0341862  
C503     C      0.977400000000     0.137510000000     0.772890000000     0.113217   
C504     C      0.959330000000     0.154190000000     0.798740000000    -0.204132   
C505     C      0.493100000000     0.935780000000     0.244000000000     0.429568   
C506     C      0.993720000000     0.556010000000     0.248990000000     0.429391   
C507     C      0.553280000000     0.995340000000     0.246460000000     0.429432   
C508     C      0.933180000000     0.996530000000     0.246630000000     0.421248   
C509     C      0.494150000000     0.742370000000     0.184210000000     0.428437   
C510     C      0.494490000000     0.749470000000     0.304250000000     0.42287    
C511     C      0.994900000000     0.805800000000     0.241670000000     0.428539   
C512     C      0.993840000000     0.685970000000     0.248290000000     0.428073   
C513     C      0.683040000000     0.995470000000     0.245740000000     0.425263   
C514     C      0.803260000000     0.999660000000     0.245950000000     0.41366    
C515     C      0.743690000000     0.495880000000     0.185440000000     0.434881   
C516     C      0.742830000000     0.498440000000     0.305620000000     0.428069   
C517     C      0.743050000000     0.997740000000     0.435580000000     0.423008   
C518     C      0.743050000000     0.494570000000     0.055540000000     0.429299   
C519     C      0.741840000000     0.936370000000     0.493450000000     0.426207   
C520     C      0.744420000000     0.556420000000     0.497700000000     0.429675   
C521     C      0.493310000000     0.742520000000     0.054180000000     0.43381    
C522     C      0.993960000000     0.750730000000     0.434200000000     0.433576   
C523     C      0.553960000000     0.746130000000     0.994620000000     0.429814   
C524     C      0.933770000000     0.747380000000     0.993970000000     0.42549    
C525     C      0.683760000000     0.745560000000     0.996160000000     0.426054   
C526     C      0.803910000000     0.748060000000     0.995110000000     0.424615   
C527     C      0.745780000000     0.686260000000     0.498450000000     0.43549    
C528     C      0.741920000000     0.806330000000     0.492790000000     0.430306   
C529     C      0.884830000000     0.728260000000     0.475000000000     0.0237195  
C530     C      0.885990000000     0.768390000000     0.013560000000    -0.00171291 
C531     C      0.852000000000     0.730020000000     0.474210000000     0.0314233  
C532     C      0.852900000000     0.768440000000     0.014900000000     0.117465   
C533     C      0.836950000000     0.791210000000     0.037240000000    -0.205187   
C534     C      0.602710000000     0.722730000000     0.480480000000     0.02769    
C535     C      0.601980000000     0.769570000000     0.010590000000     0.00176978 
C536     C      0.635570000000     0.723760000000     0.479730000000     0.0331458  
C537     C      0.635060000000     0.769380000000     0.012200000000     0.11628    
C538     C      0.651250000000     0.795490000000     0.030400000000    -0.204349   
C539     C      0.762100000000     0.887550000000     0.010830000000     0.0304584  
C540     C      0.720570000000     0.888380000000     0.473830000000    -0.0059445  
C541     C      0.760940000000     0.854790000000     0.011430000000     0.0364581  
C542     C      0.721060000000     0.855160000000     0.472200000000     0.110016   
C543     C      0.698170000000     0.838930000000     0.450170000000    -0.202881   
C544     C      0.723270000000     0.605330000000     0.015160000000     0.0314372  
C545     C      0.769050000000     0.604470000000     0.983510000000    -0.00567751 
C546     C      0.724980000000     0.638210000000     0.016720000000     0.0386838  
C547     C      0.769760000000     0.637550000000     0.983190000000     0.114065   
C548     C      0.796330000000     0.653780000000     0.965780000000    -0.203791   
C549     C      0.727590000000     0.521300000000     0.354530000000     0.0246597  
C550     C      0.758630000000     0.975080000000     0.353710000000    -0.00668436 
C551     C      0.726480000000     0.519850000000     0.387430000000     0.033189   
C552     C      0.759320000000     0.974510000000     0.386750000000     0.112038   
C553     C      0.776500000000     0.947600000000     0.402790000000    -0.20211    
C554     C      0.720650000000     0.979010000000     0.104580000000     0.0260252  
C555     C      0.766910000000     0.509920000000     0.103470000000    -0.00419432 
C556     C      0.722030000000     0.978220000000     0.137500000000     0.0328379  
C557     C      0.767300000000     0.511030000000     0.136490000000     0.116234   
C558     C      0.794010000000     0.528290000000     0.152450000000    -0.205723   
C559     C      0.516740000000     0.734800000000     0.353260000000     0.0234089  
C560     C      0.972570000000     0.768640000000     0.352170000000    -0.00848301 
C561     C      0.515670000000     0.734470000000     0.386070000000     0.033818   
C562     C      0.972780000000     0.770380000000     0.385360000000     0.112261   
C563     C      0.947870000000     0.790090000000     0.401590000000    -0.204443   
C564     C      0.516640000000     0.756980000000     0.135250000000     0.0268196  
C565     C      0.971370000000     0.724620000000     0.136100000000    -0.005037   
C566     C      0.515460000000     0.757780000000     0.102450000000     0.0350184  
C567     C      0.971400000000     0.723320000000     0.102880000000     0.113848   
C568     C      0.945790000000     0.704690000000     0.086470000000    -0.205045   
C569     C      0.601840000000     0.008320000000     0.222130000000     0.0353335  
C570     C      0.601590000000     0.481520000000     0.270960000000    -0.00291921 
C571     C      0.634670000000     0.009440000000     0.222920000000     0.0409057  
C572     C      0.634720000000     0.480290000000     0.270720000000     0.114562   
C573     C      0.651460000000     0.464680000000     0.298100000000    -0.204747   
C574     C      0.884110000000     0.974450000000     0.260570000000     0.0306902  
C575     C      0.886190000000     0.523080000000     0.233700000000    -0.00155998 
C576     C      0.851290000000     0.974990000000     0.258970000000     0.0221141  
C577     C      0.853160000000     0.525690000000     0.235270000000     0.110623   
C578     C      0.838630000000     0.556490000000     0.224560000000    -0.202471   
C579     C      0.479160000000     0.887250000000     0.219510000000     0.0270988  
C580     C      0.509510000000     0.887340000000     0.266170000000    -0.00384074 
C581     C      0.478540000000     0.854290000000     0.220080000000     0.0337727  
C582     C      0.510870000000     0.854290000000     0.265770000000     0.113922   
C583     C      0.528140000000     0.837810000000     0.292360000000    -0.203054   
C584     C      0.510050000000     0.604690000000     0.227320000000     0.0276543  
C585     C      0.978610000000     0.604290000000     0.273250000000    -0.00477338 
C586     C      0.510910000000     0.637470000000     0.228090000000     0.0338978  
C587     C      0.977400000000     0.637510000000     0.272890000000     0.112911   
C588     C      0.959330000000     0.654190000000     0.298740000000    -0.20397    
C589     C      0.493100000000     0.935780000000     0.744000000000     0.429581   
C590     C      0.993720000000     0.556010000000     0.748990000000     0.429658   
C591     C      0.553280000000     0.995340000000     0.746460000000     0.429449   
C592     C      0.933180000000     0.996530000000     0.746630000000     0.421249   
C593     C      0.494150000000     0.742370000000     0.684210000000     0.428393   
C594     C      0.494490000000     0.749470000000     0.804250000000     0.422878   
C595     C      0.994900000000     0.805800000000     0.741670000000     0.428515   
C596     C      0.993840000000     0.685970000000     0.748290000000     0.428054   
C597     C      0.683040000000     0.995470000000     0.745740000000     0.425259   
C598     C      0.803260000000     0.999660000000     0.745950000000     0.413644   
C599     C      0.743690000000     0.495880000000     0.685440000000     0.434778   
C600     C      0.742830000000     0.498440000000     0.805620000000     0.428081   
C601     C      0.743050000000     0.997740000000     0.935580000000     0.42244    
C602     C      0.743050000000     0.494570000000     0.555540000000     0.430446   
C603     C      0.741840000000     0.936370000000     0.993450000000     0.42504    
C604     C      0.744420000000     0.556420000000     0.997700000000     0.421223   
C605     C      0.493310000000     0.742520000000     0.554180000000     0.434701   
C606     C      0.993960000000     0.750730000000     0.934200000000     0.433235   
C607     C      0.553960000000     0.746130000000     0.494620000000     0.43079    
C608     C      0.933770000000     0.747380000000     0.493970000000     0.426492   
C609     C      0.683760000000     0.745560000000     0.496160000000     0.433593   
C610     C      0.803910000000     0.748060000000     0.495110000000     0.43209    
C611     C      0.745780000000     0.686260000000     0.998450000000     0.428111   
C612     C      0.741920000000     0.806330000000     0.992790000000     0.422674   
C613     C      0.884830000000     0.728260000000     0.975000000000     0.0229369  
C614     C      0.885990000000     0.768390000000     0.513560000000    -0.00667228 
C615     C      0.852000000000     0.730020000000     0.974210000000     0.0302985  
C616     C      0.852900000000     0.768440000000     0.514900000000     0.113264   
C617     C      0.836950000000     0.791210000000     0.537240000000    -0.203921   
C618     C      0.602710000000     0.722730000000     0.980480000000     0.0267987  
C619     C      0.601980000000     0.769570000000     0.510590000000    -0.00318519 
C620     C      0.635570000000     0.723760000000     0.979730000000     0.0319259  
C621     C      0.635060000000     0.769380000000     0.512200000000     0.111817   
C622     C      0.651250000000     0.795490000000     0.530400000000    -0.202786   
C623     C      0.762100000000     0.887550000000     0.510830000000     0.0254163  
C624     C      0.720570000000     0.888380000000     0.973830000000    -0.00670762 
C625     C      0.760940000000     0.854790000000     0.511430000000     0.0321929  
C626     C      0.721060000000     0.855160000000     0.972200000000     0.108573   
C627     C      0.698170000000     0.838930000000     0.950170000000    -0.20227    
C628     C      0.723270000000     0.605330000000     0.515160000000     0.0269894  
C629     C      0.769050000000     0.604470000000     0.483510000000    -0.00462745 
C630     C      0.724980000000     0.638210000000     0.516720000000     0.0341093  
C631     C      0.769760000000     0.637550000000     0.483190000000     0.11521    
C632     C      0.796330000000     0.653780000000     0.465770000000    -0.204286   
C633     C      0.727590000000     0.521300000000     0.854530000000     0.0246283  
C634     C      0.758630000000     0.975080000000     0.853700000000    -0.00661479 
C635     C      0.726480000000     0.519850000000     0.887430000000     0.0330738  
C636     C      0.759320000000     0.974510000000     0.886750000000     0.111849   
C637     C      0.776500000000     0.947600000000     0.902800000000    -0.201972   
C638     C      0.720650000000     0.979010000000     0.604580000000     0.0258752  
C639     C      0.766910000000     0.509920000000     0.603470000000    -0.00430275 
C640     C      0.722030000000     0.978220000000     0.637500000000     0.0326237  
C641     C      0.767300000000     0.511030000000     0.636490000000     0.115937   
C642     C      0.794010000000     0.528290000000     0.652450000000    -0.205539   
C643     C      0.516740000000     0.734800000000     0.853260000000     0.0233841  
C644     C      0.972570000000     0.768640000000     0.852170000000    -0.00846552 
C645     C      0.515670000000     0.734470000000     0.886070000000     0.0337132  
C646     C      0.972780000000     0.770380000000     0.885360000000     0.112103   
C647     C      0.947870000000     0.790090000000     0.901590000000    -0.204257   
C648     C      0.516640000000     0.756980000000     0.635250000000     0.0266567  
C649     C      0.971370000000     0.724620000000     0.636100000000    -0.00505415 
C650     C      0.515460000000     0.757780000000     0.602450000000     0.0347643  
C651     C      0.971400000000     0.723320000000     0.602880000000     0.113382   
C652     C      0.945790000000     0.704690000000     0.586470000000    -0.204547   
C653     C      0.601840000000     0.008320000000     0.722130000000     0.0352827  
C654     C      0.601590000000     0.481520000000     0.770960000000    -0.0029486  
C655     C      0.634670000000     0.009440000000     0.722920000000     0.0408583  
C656     C      0.634720000000     0.480290000000     0.770710000000     0.11452    
C657     C      0.651460000000     0.464680000000     0.798100000000    -0.204652   
C658     C      0.884110000000     0.974450000000     0.760570000000     0.0306051  
C659     C      0.886190000000     0.523080000000     0.733700000000    -0.00161283 
C660     C      0.851290000000     0.974990000000     0.758960000000     0.0221121  
C661     C      0.853160000000     0.525690000000     0.735270000000     0.110552   
C662     C      0.838630000000     0.556490000000     0.724560000000    -0.202412   
C663     C      0.479160000000     0.887250000000     0.719510000000     0.0270104  
C664     C      0.509510000000     0.887340000000     0.766170000000    -0.00383022 
C665     C      0.478540000000     0.854290000000     0.720080000000     0.0337768  
C666     C      0.510870000000     0.854290000000     0.765770000000     0.113791   
C667     C      0.528140000000     0.837810000000     0.792360000000    -0.202958   
C668     C      0.510050000000     0.604690000000     0.727320000000     0.0275398  
C669     C      0.978610000000     0.604290000000     0.773250000000    -0.00471961 
C670     C      0.510910000000     0.637470000000     0.728090000000     0.0338665  
C671     C      0.977400000000     0.637510000000     0.772890000000     0.112823   
C672     C      0.959330000000     0.654190000000     0.798740000000    -0.203896   
H1       H      0.339470000000     0.214770000000     0.457930000000     0.0265862  
H2       H      0.396620000000     0.212120000000     0.459020000000     0.032809   
H3       H      0.399090000000     0.284020000000     0.029070000000     0.0422689  
H4       H      0.327410000000     0.278210000000     0.057850000000     0.0833467  
H5       H      0.353550000000     0.309440000000     0.046120000000     0.0695944  
H6       H      0.317630000000     0.303810000000     0.024930000000     0.0822443  
H7       H      0.148030000000     0.205360000000     0.467010000000     0.0328255  
H8       H      0.090770000000     0.203950000000     0.467850000000     0.0358941  
H9       H      0.089070000000     0.288040000000     0.022770000000     0.0432797  
H10      H      0.171070000000     0.305490000000     0.016570000000     0.081103   
H11      H      0.134900000000     0.315270000000     0.035690000000     0.0708321  
H12      H      0.160240000000     0.286110000000     0.053130000000     0.0853718  
H13      H      0.276990000000     0.342580000000     0.027150000000     0.0276365  
H14      H      0.278690000000     0.399390000000     0.026310000000     0.0358534  
H15      H      0.204270000000     0.401400000000     0.459000000000     0.04056    
H16      H      0.185440000000     0.319750000000     0.462620000000     0.0786473  
H17      H      0.180070000000     0.355510000000     0.441010000000     0.0681958  
H18      H      0.211140000000     0.329070000000     0.429690000000     0.0828016  
H19      H      0.207090000000     0.150760000000     0.030030000000     0.0329282  
H20      H      0.204570000000     0.093480000000     0.027970000000     0.0386915  
H21      H      0.286930000000     0.091640000000     0.970420000000     0.0453405  
H22      H      0.306180000000     0.173090000000     0.980430000000     0.0786197  
H23      H      0.316010000000     0.137300000000     0.960540000000     0.0688955  
H24      H      0.287540000000     0.163450000000     0.443090000000     0.0840302  
H25      H      0.213420000000     0.037950000000     0.399960000000     0.0331405  
H26      H      0.214780000000     0.039980000000     0.342660000000     0.0356713  
H27      H      0.271300000000     0.456910000000     0.340860000000     0.0437298  
H28      H      0.261730000000     0.437350000000     0.421840000000     0.0809683  
H29      H      0.281900000000     0.428140000000     0.386090000000     0.0685554  
H30      H      0.299130000000     0.456200000000     0.412730000000     0.0844128  
H31      H      0.203910000000     0.465340000000     0.150190000000     0.0319659  
H32      H      0.201900000000     0.466200000000     0.092810000000     0.0375378  
H33      H      0.285120000000     0.022450000000     0.090530000000     0.0463948  
H34      H      0.304290000000     0.013240000000     0.171240000000     0.0812334  
H35      H      0.313380000000     0.034030000000     0.135770000000     0.0709878  
H36      H      0.285130000000     0.050750000000     0.162530000000     0.0817413  
H37      H      0.032920000000     0.220270000000     0.398570000000     0.0324883  
H38      H      0.034440000000     0.220480000000     0.341590000000     0.0361691  
H39      H      0.455130000000     0.282070000000     0.339110000000     0.041952   
H40      H      0.459020000000     0.310890000000     0.412900000000     0.0841365  
H41      H      0.429820000000     0.298850000000     0.384740000000     0.0692945  
H42      H      0.435390000000     0.275820000000     0.419670000000     0.0811492  
H43      H      0.033140000000     0.271530000000     0.090050000000     0.0328358  
H44      H      0.034860000000     0.270530000000     0.147020000000     0.0374845  
H45      H      0.453510000000     0.211640000000     0.149050000000     0.043482   
H46      H      0.456160000000     0.183540000000     0.075070000000     0.0866482  
H47      H      0.427360000000     0.196560000000     0.103240000000     0.0704119  
H48      H      0.433920000000     0.219530000000     0.068440000000     0.0822703  
H49      H      0.146940000000     0.521010000000     0.203660000000     0.0321842  
H50      H      0.089750000000     0.519510000000     0.202560000000     0.036998   
H51      H      0.088900000000     0.970610000000     0.290340000000     0.042395   
H52      H      0.170150000000     0.980440000000     0.307500000000     0.0796512  
H53      H      0.135080000000     0.959440000000     0.317860000000     0.0688931  
H54      H      0.162110000000     0.942100000000     0.290250000000     0.0843086  
H55      H      0.338610000000     0.455140000000     0.268980000000     0.0346337  
H56      H      0.395660000000     0.454280000000     0.271300000000     0.0318556  
H57      H      0.399920000000     0.042260000000     0.223690000000     0.0381848  
H58      H      0.328970000000     0.069290000000     0.245260000000     0.0832094  
H59      H      0.356140000000     0.072210000000     0.213040000000     0.067204   
H60      H      0.319740000000     0.052360000000     0.207180000000     0.0789662  
H61      H      0.965820000000     0.342010000000     0.201580000000     0.0324345  
H62      H      0.966430000000     0.399430000000     0.200960000000     0.0362353  
H63      H      0.021720000000     0.399930000000     0.284830000000     0.0439101  
H64      H      0.050610000000     0.327760000000     0.283470000000     0.0854557  
H65      H      0.033900000000     0.354230000000     0.311950000000     0.0699553  
H66      H      0.513270000000     0.318790000000     0.302490000000     0.0817889  
H67      H      0.024130000000     0.149630000000     0.209850000000     0.0347481  
H68      H      0.023100000000     0.092700000000     0.208860000000     0.0384547  
H69      H      0.465870000000     0.091530000000     0.291420000000     0.044016   
H70      H      0.436960000000     0.163760000000     0.289110000000     0.0841159  
H71      H      0.453410000000     0.137970000000     0.318460000000     0.070659   
H72      H      0.473660000000     0.173670000000     0.308800000000     0.0824089  
H73      H      0.339470000000     0.214770000000     0.957940000000     0.0266588  
H74      H      0.396620000000     0.212120000000     0.959020000000     0.032608   
H75      H      0.399090000000     0.284020000000     0.529070000000     0.0419208  
H76      H      0.327410000000     0.278210000000     0.557850000000     0.0827742  
H77      H      0.353550000000     0.309440000000     0.546120000000     0.068684   
H78      H      0.317630000000     0.303810000000     0.524930000000     0.0806354  
H79      H      0.148030000000     0.205360000000     0.967010000000     0.0324714  
H80      H      0.090770000000     0.203950000000     0.967850000000     0.0355112  
H81      H      0.089070000000     0.288040000000     0.522770000000     0.042762   
H82      H      0.171070000000     0.305490000000     0.516570000000     0.0786459  
H83      H      0.134900000000     0.315270000000     0.535690000000     0.0695142  
H84      H      0.160240000000     0.286110000000     0.553130000000     0.0846417  
H85      H      0.276990000000     0.342580000000     0.527150000000     0.0277285  
H86      H      0.278690000000     0.399390000000     0.526310000000     0.0354     
H87      H      0.204270000000     0.401400000000     0.959000000000     0.0403022  
H88      H      0.185440000000     0.319750000000     0.962620000000     0.0774398  
H89      H      0.180070000000     0.355510000000     0.941010000000     0.067513   
H90      H      0.211140000000     0.329070000000     0.929690000000     0.0825696  
H91      H      0.207090000000     0.150760000000     0.530030000000     0.0325827  
H92      H      0.204570000000     0.093480000000     0.527970000000     0.0384888  
H93      H      0.286930000000     0.091640000000     0.470420000000     0.0454963  
H94      H      0.306180000000     0.173090000000     0.480430000000     0.0794458  
H95      H      0.316010000000     0.137300000000     0.460540000000     0.069553   
H96      H      0.287540000000     0.163450000000     0.943090000000     0.0838182  
H97      H      0.213420000000     0.037950000000     0.899960000000     0.0328473  
H98      H      0.214780000000     0.039980000000     0.842660000000     0.0355888  
H99      H      0.271300000000     0.456910000000     0.840860000000     0.0436574  
H100     H      0.261730000000     0.437350000000     0.921840000000     0.080829   
H101     H      0.281900000000     0.428140000000     0.886090000000     0.0682917  
H102     H      0.299130000000     0.456200000000     0.912730000000     0.0840283  
H103     H      0.203910000000     0.465340000000     0.650190000000     0.0318024  
H104     H      0.201900000000     0.466200000000     0.592810000000     0.0368998  
H105     H      0.285120000000     0.022450000000     0.590530000000     0.0457049  
H106     H      0.304290000000     0.013240000000     0.671240000000     0.0810903  
H107     H      0.313380000000     0.034030000000     0.635770000000     0.070515   
H108     H      0.285130000000     0.050750000000     0.662530000000     0.0815333  
H109     H      0.032920000000     0.220270000000     0.898570000000     0.0323571  
H110     H      0.034440000000     0.220480000000     0.841590000000     0.0361044  
H111     H      0.455130000000     0.282070000000     0.839110000000     0.0418995  
H112     H      0.459020000000     0.310890000000     0.912900000000     0.0836825  
H113     H      0.429820000000     0.298850000000     0.884740000000     0.0690321  
H114     H      0.435390000000     0.275820000000     0.919670000000     0.0808981  
H115     H      0.033140000000     0.271530000000     0.590060000000     0.0322449  
H116     H      0.034860000000     0.270530000000     0.647020000000     0.0373184  
H117     H      0.453510000000     0.211640000000     0.649050000000     0.0433371  
H118     H      0.456160000000     0.183540000000     0.575070000000     0.0855516  
H119     H      0.427360000000     0.196560000000     0.603230000000     0.0698556  
H120     H      0.433920000000     0.219530000000     0.568440000000     0.0811166  
H121     H      0.146940000000     0.521010000000     0.703660000000     0.0320423  
H122     H      0.089750000000     0.519510000000     0.702560000000     0.0367976  
H123     H      0.088900000000     0.970610000000     0.790340000000     0.0423055  
H124     H      0.170150000000     0.980440000000     0.807500000000     0.0795789  
H125     H      0.135080000000     0.959440000000     0.817860000000     0.0687351  
H126     H      0.162110000000     0.942100000000     0.790250000000     0.0842424  
H127     H      0.338610000000     0.455140000000     0.768980000000     0.0345722  
H128     H      0.395660000000     0.454280000000     0.771290000000     0.0317905  
H129     H      0.399920000000     0.042260000000     0.723690000000     0.0380793  
H130     H      0.328970000000     0.069290000000     0.745260000000     0.0831606  
H131     H      0.356140000000     0.072210000000     0.713040000000     0.0670515  
H132     H      0.319740000000     0.052360000000     0.707180000000     0.0788799  
H133     H      0.965820000000     0.342010000000     0.701580000000     0.0322832  
H134     H      0.966430000000     0.399430000000     0.700960000000     0.0360418  
H135     H      0.021720000000     0.399930000000     0.784830000000     0.0438202  
H136     H      0.050610000000     0.327760000000     0.783470000000     0.0853873  
H137     H      0.033900000000     0.354230000000     0.811950000000     0.069807   
H138     H      0.513270000000     0.318790000000     0.802490000000     0.0817214  
H139     H      0.024130000000     0.149630000000     0.709850000000     0.0346095  
H140     H      0.023100000000     0.092700000000     0.708860000000     0.0382897  
H141     H      0.465870000000     0.091530000000     0.791420000000     0.043908   
H142     H      0.436960000000     0.163760000000     0.789110000000     0.0840659  
H143     H      0.453410000000     0.137970000000     0.818460000000     0.0705225  
H144     H      0.473660000000     0.173670000000     0.808800000000     0.0823496  
H145     H      0.339470000000     0.714770000000     0.457930000000     0.0264859  
H146     H      0.396620000000     0.712120000000     0.459020000000     0.0325968  
H147     H      0.399090000000     0.784020000000     0.029070000000     0.0421424  
H148     H      0.327410000000     0.778210000000     0.057850000000     0.0832466  
H149     H      0.353550000000     0.809440000000     0.046120000000     0.0693601  
H150     H      0.317630000000     0.803810000000     0.024930000000     0.0821446  
H151     H      0.148030000000     0.705360000000     0.467010000000     0.0326066  
H152     H      0.090770000000     0.703950000000     0.467850000000     0.0356178  
H153     H      0.089070000000     0.788040000000     0.022770000000     0.0431425  
H154     H      0.171070000000     0.805490000000     0.016570000000     0.0810191  
H155     H      0.134900000000     0.815270000000     0.035690000000     0.0706117  
H156     H      0.160240000000     0.786110000000     0.053130000000     0.0852581  
H157     H      0.276990000000     0.842580000000     0.027150000000     0.0275293  
H158     H      0.278690000000     0.899390000000     0.026310000000     0.0355129  
H159     H      0.204270000000     0.901400000000     0.459000000000     0.0401869  
H160     H      0.185440000000     0.819750000000     0.462620000000     0.0785738  
H161     H      0.180070000000     0.855510000000     0.441010000000     0.0679461  
H162     H      0.211140000000     0.829070000000     0.429690000000     0.0827249  
H163     H      0.207090000000     0.650760000000     0.030030000000     0.0326819  
H164     H      0.204570000000     0.593480000000     0.027970000000     0.0377547  
H165     H      0.286930000000     0.591640000000     0.970420000000     0.0444392  
H166     H      0.306180000000     0.673090000000     0.980430000000     0.0784279  
H167     H      0.316010000000     0.637300000000     0.960540000000     0.0682704  
H168     H      0.287540000000     0.663450000000     0.443090000000     0.0837417  
H169     H      0.213420000000     0.537950000000     0.399960000000     0.032987   
H170     H      0.214780000000     0.539990000000     0.342660000000     0.0355248  
H171     H      0.271300000000     0.956910000000     0.340860000000     0.043678   
H172     H      0.261730000000     0.937350000000     0.421840000000     0.0807739  
H173     H      0.281900000000     0.928140000000     0.386090000000     0.0681651  
H174     H      0.299130000000     0.956200000000     0.412730000000     0.083491   
H175     H      0.203910000000     0.965340000000     0.150190000000     0.0314518  
H176     H      0.201900000000     0.966200000000     0.092810000000     0.0369978  
H177     H      0.285120000000     0.522450000000     0.090530000000     0.045704   
H178     H      0.304290000000     0.513240000000     0.171240000000     0.0783089  
H179     H      0.313380000000     0.534030000000     0.135770000000     0.0694882  
H180     H      0.285130000000     0.550750000000     0.162530000000     0.0808727  
H181     H      0.032920000000     0.720270000000     0.398570000000     0.0322992  
H182     H      0.034440000000     0.720480000000     0.341590000000     0.0360077  
H183     H      0.455130000000     0.782070000000     0.339110000000     0.041899   
H184     H      0.459020000000     0.810890000000     0.412900000000     0.0839017  
H185     H      0.429820000000     0.798850000000     0.384740000000     0.0691454  
H186     H      0.435390000000     0.775820000000     0.419670000000     0.0810552  
H187     H      0.033140000000     0.771530000000     0.090050000000     0.0327184  
H188     H      0.034860000000     0.770530000000     0.147020000000     0.0373939  
H189     H      0.453510000000     0.711650000000     0.149050000000     0.0434004  
H190     H      0.456160000000     0.683530000000     0.075070000000     0.0861549  
H191     H      0.427360000000     0.696560000000     0.103240000000     0.0701283  
H192     H      0.433920000000     0.719530000000     0.068440000000     0.0821176  
H193     H      0.146940000000     0.021010000000     0.203660000000     0.032963   
H194     H      0.089750000000     0.019520000000     0.202560000000     0.037949   
H195     H      0.088900000000     0.470610000000     0.290340000000     0.0428417  
H196     H      0.170150000000     0.480440000000     0.307500000000     0.0813276  
H197     H      0.135080000000     0.459440000000     0.317860000000     0.0699939  
H198     H      0.162110000000     0.442100000000     0.290250000000     0.0846367  
H199     H      0.338610000000     0.955140000000     0.268980000000     0.0364102  
H200     H      0.395660000000     0.954280000000     0.271300000000     0.031066   
H201     H      0.399920000000     0.542260000000     0.223690000000     0.0389184  
H202     H      0.328970000000     0.569290000000     0.245260000000     0.0830096  
H203     H      0.356140000000     0.572210000000     0.213040000000     0.0670887  
H204     H      0.319740000000     0.552360000000     0.207180000000     0.0787993  
H205     H      0.965820000000     0.842010000000     0.201580000000     0.0322738  
H206     H      0.966430000000     0.899420000000     0.200960000000     0.0357114  
H207     H      0.021720000000     0.899930000000     0.284830000000     0.043731   
H208     H      0.050610000000     0.827760000000     0.283470000000     0.0853431  
H209     H      0.033900000000     0.854230000000     0.311950000000     0.0697815  
H210     H      0.513270000000     0.818790000000     0.302490000000     0.0816807  
H211     H      0.024130000000     0.649630000000     0.209850000000     0.03453    
H212     H      0.023100000000     0.592700000000     0.208860000000     0.0376213  
H213     H      0.465870000000     0.591530000000     0.291420000000     0.0430908  
H214     H      0.436960000000     0.663760000000     0.289110000000     0.0838617  
H215     H      0.453410000000     0.637970000000     0.318460000000     0.0700207  
H216     H      0.473660000000     0.673670000000     0.308800000000     0.0821776  
H217     H      0.339470000000     0.714770000000     0.957940000000     0.0265587  
H218     H      0.396620000000     0.712120000000     0.959020000000     0.0323956  
H219     H      0.399090000000     0.784020000000     0.529070000000     0.0417939  
H220     H      0.327410000000     0.778210000000     0.557850000000     0.0826728  
H221     H      0.353550000000     0.809440000000     0.546120000000     0.0684478  
H222     H      0.317630000000     0.803810000000     0.524930000000     0.0805328  
H223     H      0.148030000000     0.705360000000     0.967010000000     0.0322517  
H224     H      0.090770000000     0.703950000000     0.967850000000     0.0352344  
H225     H      0.089070000000     0.788040000000     0.522770000000     0.0426242  
H226     H      0.171070000000     0.805490000000     0.516570000000     0.0785585  
H227     H      0.134900000000     0.815270000000     0.535690000000     0.0692917  
H228     H      0.160240000000     0.786110000000     0.553130000000     0.0845268  
H229     H      0.276990000000     0.842580000000     0.527150000000     0.0276212  
H230     H      0.278690000000     0.899390000000     0.526310000000     0.0350585  
H231     H      0.204270000000     0.901400000000     0.959000000000     0.03993    
H232     H      0.185440000000     0.819750000000     0.962620000000     0.0773658  
H233     H      0.180070000000     0.855510000000     0.941010000000     0.0672639  
H234     H      0.211140000000     0.829070000000     0.929690000000     0.0824928  
H235     H      0.207090000000     0.650760000000     0.530030000000     0.0323344  
H236     H      0.204570000000     0.593480000000     0.527970000000     0.0375482  
H237     H      0.286930000000     0.591640000000     0.470420000000     0.0445943  
H238     H      0.306180000000     0.673090000000     0.480430000000     0.0792549  
H239     H      0.316010000000     0.637300000000     0.460540000000     0.0689285  
H240     H      0.287540000000     0.663450000000     0.943090000000     0.0835295  
H241     H      0.213420000000     0.537950000000     0.899960000000     0.0326925  
H242     H      0.214780000000     0.539990000000     0.842660000000     0.0354419  
H243     H      0.271300000000     0.956910000000     0.840860000000     0.0436057  
H244     H      0.261730000000     0.937350000000     0.921840000000     0.0806345  
H245     H      0.281900000000     0.928140000000     0.886090000000     0.0679018  
H246     H      0.299130000000     0.956200000000     0.912730000000     0.0831082  
H247     H      0.203910000000     0.965340000000     0.650190000000     0.0312876  
H248     H      0.201900000000     0.966200000000     0.592810000000     0.0363587  
H249     H      0.285120000000     0.522450000000     0.590530000000     0.0450085  
H250     H      0.304290000000     0.513240000000     0.671240000000     0.0781583  
H251     H      0.313380000000     0.534030000000     0.635770000000     0.069009   
H252     H      0.285130000000     0.550750000000     0.662530000000     0.0806618  
H253     H      0.032920000000     0.720270000000     0.898570000000     0.0321678  
H254     H      0.034440000000     0.720480000000     0.841590000000     0.0359428  
H255     H      0.455130000000     0.782070000000     0.839110000000     0.0418465  
H256     H      0.459020000000     0.810890000000     0.912900000000     0.0834484  
H257     H      0.429820000000     0.798850000000     0.884740000000     0.0688834  
H258     H      0.435390000000     0.775820000000     0.919670000000     0.0808042  
H259     H      0.033140000000     0.771530000000     0.590060000000     0.0321261  
H260     H      0.034860000000     0.770530000000     0.647020000000     0.0372274  
H261     H      0.453510000000     0.711650000000     0.649050000000     0.0432548  
H262     H      0.456160000000     0.683530000000     0.575070000000     0.0850534  
H263     H      0.427360000000     0.696560000000     0.603230000000     0.0695695  
H264     H      0.433920000000     0.719530000000     0.568440000000     0.0809608  
H265     H      0.146940000000     0.021010000000     0.703660000000     0.0328246  
H266     H      0.089750000000     0.019520000000     0.702560000000     0.0377524  
H267     H      0.088900000000     0.470610000000     0.790340000000     0.0427514  
H268     H      0.170150000000     0.480440000000     0.807500000000     0.0812545  
H269     H      0.135080000000     0.459440000000     0.817860000000     0.0698347  
H270     H      0.162110000000     0.442100000000     0.790250000000     0.0845703  
H271     H      0.338610000000     0.955140000000     0.768980000000     0.036351   
H272     H      0.395660000000     0.954280000000     0.771290000000     0.0310002  
H273     H      0.399920000000     0.542260000000     0.723690000000     0.0388131  
H274     H      0.328970000000     0.569290000000     0.745260000000     0.0829608  
H275     H      0.356140000000     0.572210000000     0.713040000000     0.0669351  
H276     H      0.319740000000     0.552360000000     0.707180000000     0.0787121  
H277     H      0.965820000000     0.842010000000     0.701580000000     0.0321221  
H278     H      0.966430000000     0.899420000000     0.700960000000     0.0355169  
H279     H      0.021720000000     0.899930000000     0.784830000000     0.0436414  
H280     H      0.050610000000     0.827760000000     0.783470000000     0.0852746  
H281     H      0.033900000000     0.854230000000     0.811950000000     0.0696336  
H282     H      0.513270000000     0.818790000000     0.802490000000     0.0816134  
H283     H      0.024130000000     0.649630000000     0.709850000000     0.0343904  
H284     H      0.023100000000     0.592700000000     0.708860000000     0.0374539  
H285     H      0.465870000000     0.591530000000     0.791420000000     0.0429818  
H286     H      0.436960000000     0.663760000000     0.789110000000     0.0838114  
H287     H      0.453410000000     0.637970000000     0.818460000000     0.0698837  
H288     H      0.473660000000     0.673670000000     0.808800000000     0.0821181  
H289     H      0.839470000000     0.214770000000     0.457930000000     0.0265622  
H290     H      0.896620000000     0.212120000000     0.459020000000     0.0326929  
H291     H      0.899090000000     0.284020000000     0.029070000000     0.0421315  
H292     H      0.827410000000     0.278210000000     0.057850000000     0.0833192  
H293     H      0.853550000000     0.309440000000     0.046120000000     0.0694837  
H294     H      0.817630000000     0.303810000000     0.024930000000     0.0822206  
H295     H      0.648030000000     0.205360000000     0.467010000000     0.032683   
H296     H      0.590770000000     0.203950000000     0.467850000000     0.0354007  
H297     H      0.589080000000     0.288040000000     0.022770000000     0.0427844  
H298     H      0.671070000000     0.305490000000     0.016570000000     0.0810068  
H299     H      0.634900000000     0.315270000000     0.035690000000     0.0705054  
H300     H      0.660240000000     0.286110000000     0.053130000000     0.0852136  
H301     H      0.776990000000     0.342580000000     0.027150000000     0.0276109  
H302     H      0.778680000000     0.399390000000     0.026310000000     0.0358032  
H303     H      0.704270000000     0.401400000000     0.459000000000     0.040441   
H304     H      0.685440000000     0.319750000000     0.462620000000     0.0785259  
H305     H      0.680070000000     0.355510000000     0.441010000000     0.0679873  
H306     H      0.711140000000     0.329070000000     0.429690000000     0.0827289  
H307     H      0.707090000000     0.150760000000     0.030030000000     0.0328121  
H308     H      0.704570000000     0.093480000000     0.027970000000     0.0385398  
H309     H      0.786930000000     0.091640000000     0.970420000000     0.0452831  
H310     H      0.806180000000     0.173090000000     0.980430000000     0.0785799  
H311     H      0.816010000000     0.137300000000     0.960540000000     0.0688005  
H312     H      0.787540000000     0.163450000000     0.443090000000     0.0839852  
H313     H      0.713420000000     0.037950000000     0.399960000000     0.0330313  
H314     H      0.714780000000     0.039980000000     0.342660000000     0.0355641  
H315     H      0.771300000000     0.456910000000     0.340860000000     0.0437048  
H316     H      0.761730000000     0.437350000000     0.421840000000     0.0809259  
H317     H      0.781900000000     0.428140000000     0.386090000000     0.0684895  
H318     H      0.799130000000     0.456200000000     0.412730000000     0.0843036  
H319     H      0.703910000000     0.465340000000     0.150190000000     0.0318639  
H320     H      0.701900000000     0.466200000000     0.092810000000     0.0373517  
H321     H      0.785110000000     0.022450000000     0.090530000000     0.046353   
H322     H      0.804290000000     0.013240000000     0.171240000000     0.0811968  
H323     H      0.813380000000     0.034030000000     0.135770000000     0.0708898  
H324     H      0.785130000000     0.050750000000     0.162530000000     0.0817026  
H325     H      0.532920000000     0.220270000000     0.398570000000     0.0321799  
H326     H      0.534440000000     0.220480000000     0.341590000000     0.0360286  
H327     H      0.955130000000     0.282070000000     0.339110000000     0.0417949  
H328     H      0.959020000000     0.310890000000     0.412900000000     0.0835303  
H329     H      0.929820000000     0.298850000000     0.384740000000     0.0690154  
H330     H      0.935390000000     0.275820000000     0.419670000000     0.08108    
H331     H      0.533140000000     0.271530000000     0.090050000000     0.0325448  
H332     H      0.534860000000     0.270530000000     0.147020000000     0.037399   
H333     H      0.953510000000     0.211640000000     0.149050000000     0.0434206  
H334     H      0.956150000000     0.183540000000     0.075070000000     0.0861433  
H335     H      0.927360000000     0.196560000000     0.103240000000     0.0701848  
H336     H      0.933920000000     0.219530000000     0.068440000000     0.0822118  
H337     H      0.646940000000     0.521010000000     0.203660000000     0.0320327  
H338     H      0.589750000000     0.519510000000     0.202560000000     0.0364969  
H339     H      0.588900000000     0.970610000000     0.290340000000     0.0419367  
H340     H      0.670140000000     0.980440000000     0.307500000000     0.0795839  
H341     H      0.635080000000     0.959440000000     0.317860000000     0.0685956  
H342     H      0.662110000000     0.942100000000     0.290250000000     0.0842     
H343     H      0.838610000000     0.455140000000     0.268980000000     0.034591   
H344     H      0.895660000000     0.454280000000     0.271300000000     0.0317221  
H345     H      0.899920000000     0.042260000000     0.223690000000     0.03807    
H346     H      0.828970000000     0.069290000000     0.245260000000     0.0831722  
H347     H      0.856140000000     0.072210000000     0.213040000000     0.0671005  
H348     H      0.819740000000     0.052360000000     0.207180000000     0.0789343  
H349     H      0.465820000000     0.342010000000     0.201580000000     0.0326576  
H350     H      0.466430000000     0.399430000000     0.200960000000     0.0365089  
H351     H      0.521720000000     0.399930000000     0.284830000000     0.0435146  
H352     H      0.550610000000     0.327760000000     0.283470000000     0.0848872  
H353     H      0.533900000000     0.354230000000     0.311950000000     0.0689735  
H354     H      0.013270000000     0.318790000000     0.302490000000     0.0836408  
H355     H      0.524130000000     0.149630000000     0.209850000000     0.0344418  
H356     H      0.523100000000     0.092700000000     0.208860000000     0.0379911  
H357     H      0.965870000000     0.091530000000     0.291420000000     0.043786   
H358     H      0.936960000000     0.163760000000     0.289110000000     0.083966   
H359     H      0.953410000000     0.137970000000     0.318460000000     0.0701328  
H360     H      0.973660000000     0.173670000000     0.308800000000     0.0816038  
H361     H      0.839470000000     0.214770000000     0.957940000000     0.0266349  
H362     H      0.896620000000     0.212120000000     0.959020000000     0.0324924  
H363     H      0.899090000000     0.284020000000     0.529070000000     0.0417832  
H364     H      0.827410000000     0.278210000000     0.557850000000     0.0827457  
H365     H      0.853550000000     0.309440000000     0.546120000000     0.0685717  
H366     H      0.817630000000     0.303810000000     0.524930000000     0.0806091  
H367     H      0.648030000000     0.205360000000     0.967010000000     0.0323284  
H368     H      0.590770000000     0.203950000000     0.967850000000     0.0350166  
H369     H      0.589080000000     0.288040000000     0.522770000000     0.0422655  
H370     H      0.671070000000     0.305490000000     0.516570000000     0.0785427  
H371     H      0.634900000000     0.315270000000     0.535690000000     0.0691819  
H372     H      0.660240000000     0.286110000000     0.553130000000     0.0844807  
H373     H      0.776990000000     0.342580000000     0.527150000000     0.0277033  
H374     H      0.778680000000     0.399390000000     0.526310000000     0.0353502  
H375     H      0.704270000000     0.401400000000     0.959000000000     0.0401825  
H376     H      0.685440000000     0.319750000000     0.962620000000     0.0773152  
H377     H      0.680070000000     0.355510000000     0.941010000000     0.0673027  
H378     H      0.711140000000     0.329070000000     0.929690000000     0.0824963  
H379     H      0.707090000000     0.150760000000     0.530030000000     0.0324644  
H380     H      0.704570000000     0.093480000000     0.527970000000     0.0383351  
H381     H      0.786930000000     0.091640000000     0.470420000000     0.0454383  
H382     H      0.806180000000     0.173090000000     0.480430000000     0.079406   
H383     H      0.816010000000     0.137300000000     0.460540000000     0.0694576  
H384     H      0.787540000000     0.163450000000     0.943090000000     0.0837732  
H385     H      0.713420000000     0.037950000000     0.899960000000     0.0327374  
H386     H      0.714780000000     0.039980000000     0.842660000000     0.0354813  
H387     H      0.771300000000     0.456910000000     0.840860000000     0.0436325  
H388     H      0.761730000000     0.437350000000     0.921840000000     0.0807866  
H389     H      0.781900000000     0.428140000000     0.886090000000     0.0682258  
H390     H      0.799130000000     0.456200000000     0.912730000000     0.0839194  
H391     H      0.703910000000     0.465340000000     0.650190000000     0.0316995  
H392     H      0.701900000000     0.466200000000     0.592810000000     0.0367113  
H393     H      0.785110000000     0.022450000000     0.590530000000     0.0456621  
H394     H      0.804290000000     0.013240000000     0.671240000000     0.0810535  
H395     H      0.813380000000     0.034030000000     0.635770000000     0.0704164  
H396     H      0.785130000000     0.050750000000     0.662530000000     0.0814942  
H397     H      0.532920000000     0.220270000000     0.898570000000     0.0320481  
H398     H      0.534440000000     0.220480000000     0.841590000000     0.0359635  
H399     H      0.955130000000     0.282070000000     0.839110000000     0.0417422  
H400     H      0.959020000000     0.310890000000     0.912900000000     0.0830772  
H401     H      0.929820000000     0.298850000000     0.884740000000     0.0687531  
H402     H      0.935390000000     0.275820000000     0.919670000000     0.0808289  
H403     H      0.533140000000     0.271530000000     0.590060000000     0.0319511  
H404     H      0.534860000000     0.270530000000     0.647020000000     0.0372317  
H405     H      0.953510000000     0.211640000000     0.649050000000     0.0432756  
H406     H      0.956150000000     0.183540000000     0.575070000000     0.0850456  
H407     H      0.927360000000     0.196560000000     0.603230000000     0.0696277  
H408     H      0.933920000000     0.219530000000     0.568440000000     0.0810578  
H409     H      0.646940000000     0.521010000000     0.703660000000     0.0318898  
H410     H      0.589750000000     0.519510000000     0.702560000000     0.036294   
H411     H      0.588900000000     0.970610000000     0.790340000000     0.0418462  
H412     H      0.670140000000     0.980440000000     0.807500000000     0.0795112  
H413     H      0.635080000000     0.959440000000     0.817860000000     0.0684367  
H414     H      0.662110000000     0.942100000000     0.790250000000     0.0841334  
H415     H      0.838610000000     0.455140000000     0.768980000000     0.0345295  
H416     H      0.895660000000     0.454280000000     0.771290000000     0.031657   
H417     H      0.899920000000     0.042260000000     0.723690000000     0.0379642  
H418     H      0.828970000000     0.069290000000     0.745260000000     0.0831233  
H419     H      0.856140000000     0.072210000000     0.713040000000     0.0669477  
H420     H      0.819740000000     0.052360000000     0.707180000000     0.0788479  
H421     H      0.465820000000     0.342010000000     0.701580000000     0.032507   
H422     H      0.466430000000     0.399430000000     0.700960000000     0.036316   
H423     H      0.521720000000     0.399930000000     0.784830000000     0.043424   
H424     H      0.550610000000     0.327760000000     0.783470000000     0.0848176  
H425     H      0.533900000000     0.354230000000     0.811950000000     0.0688231  
H426     H      0.013270000000     0.318790000000     0.802490000000     0.0835771  
H427     H      0.524130000000     0.149630000000     0.709850000000     0.0343012  
H428     H      0.523100000000     0.092700000000     0.708860000000     0.0378232  
H429     H      0.965870000000     0.091530000000     0.791420000000     0.0436783  
H430     H      0.936960000000     0.163760000000     0.789110000000     0.0839158  
H431     H      0.953410000000     0.137970000000     0.818460000000     0.0699965  
H432     H      0.973660000000     0.173670000000     0.808800000000     0.0815442  
H433     H      0.839470000000     0.714770000000     0.457930000000     0.0264618  
H434     H      0.896620000000     0.712120000000     0.459020000000     0.0324804  
H435     H      0.899090000000     0.784020000000     0.029070000000     0.0420052  
H436     H      0.827410000000     0.778210000000     0.057850000000     0.083219   
H437     H      0.853550000000     0.809440000000     0.046120000000     0.0692495  
H438     H      0.817630000000     0.803810000000     0.024930000000     0.082121   
H439     H      0.648030000000     0.705360000000     0.467010000000     0.0324628  
H440     H      0.590770000000     0.703950000000     0.467850000000     0.0351213  
H441     H      0.589080000000     0.788040000000     0.022770000000     0.0426455  
H442     H      0.671070000000     0.805490000000     0.016570000000     0.0809225  
H443     H      0.634900000000     0.815270000000     0.035690000000     0.0702836  
H444     H      0.660240000000     0.786110000000     0.053130000000     0.0850991  
H445     H      0.776990000000     0.842580000000     0.027150000000     0.0275036  
H446     H      0.778680000000     0.899390000000     0.026310000000     0.0354628  
H447     H      0.704270000000     0.901400000000     0.459000000000     0.0400669  
H448     H      0.685440000000     0.819750000000     0.462620000000     0.078452   
H449     H      0.680070000000     0.855510000000     0.441010000000     0.0677366  
H450     H      0.711140000000     0.829070000000     0.429690000000     0.0826518  
H451     H      0.707090000000     0.650760000000     0.030030000000     0.0325646  
H452     H      0.704570000000     0.593480000000     0.027970000000     0.0375997  
H453     H      0.786930000000     0.591640000000     0.970420000000     0.0443807  
H454     H      0.806180000000     0.673090000000     0.980430000000     0.0783878  
H455     H      0.816010000000     0.637300000000     0.960540000000     0.0681747  
H456     H      0.787540000000     0.663450000000     0.443090000000     0.0836962  
H457     H      0.713420000000     0.537950000000     0.399960000000     0.0328766  
H458     H      0.714780000000     0.539990000000     0.342660000000     0.0354163  
H459     H      0.771300000000     0.956910000000     0.340860000000     0.0436534  
H460     H      0.761730000000     0.937350000000     0.421840000000     0.0807313  
H461     H      0.781900000000     0.928140000000     0.386090000000     0.068099   
H462     H      0.799130000000     0.956200000000     0.412730000000     0.0833819  
H463     H      0.703910000000     0.965340000000     0.150190000000     0.031348   
H464     H      0.701900000000     0.966200000000     0.092810000000     0.0368096  
H465     H      0.785110000000     0.522450000000     0.090530000000     0.0456627  
H466     H      0.804290000000     0.513240000000     0.171240000000     0.078268   
H467     H      0.813380000000     0.534030000000     0.135770000000     0.0693882  
H468     H      0.785130000000     0.550750000000     0.162530000000     0.0808324  
H469     H      0.532920000000     0.720270000000     0.398570000000     0.0319885  
H470     H      0.534440000000     0.720480000000     0.341590000000     0.0358654  
H471     H      0.955130000000     0.782070000000     0.339110000000     0.0417419  
H472     H      0.959020000000     0.810890000000     0.412900000000     0.0832956  
H473     H      0.929820000000     0.798850000000     0.384740000000     0.0688662  
H474     H      0.935390000000     0.775820000000     0.419670000000     0.0809861  
H475     H      0.533140000000     0.771530000000     0.090050000000     0.0324264  
H476     H      0.534860000000     0.770530000000     0.147020000000     0.0373081  
H477     H      0.953510000000     0.711650000000     0.149050000000     0.0433391  
H478     H      0.956150000000     0.683530000000     0.075070000000     0.0856488  
H479     H      0.927360000000     0.696560000000     0.103240000000     0.0699006  
H480     H      0.933920000000     0.719530000000     0.068440000000     0.082059   
H481     H      0.646940000000     0.021010000000     0.203660000000     0.0328147  
H482     H      0.589750000000     0.019520000000     0.202560000000     0.0374538  
H483     H      0.588900000000     0.470610000000     0.290340000000     0.0423853  
H484     H      0.670140000000     0.480440000000     0.307500000000     0.0812643  
H485     H      0.635080000000     0.459440000000     0.317860000000     0.0696997  
H486     H      0.662110000000     0.442100000000     0.290250000000     0.0845296  
H487     H      0.838610000000     0.955140000000     0.268980000000     0.0363689  
H488     H      0.895660000000     0.954280000000     0.271300000000     0.0309318  
H489     H      0.899920000000     0.542260000000     0.223690000000     0.0388037  
H490     H      0.828970000000     0.569290000000     0.245260000000     0.0829721  
H491     H      0.856140000000     0.572210000000     0.213040000000     0.0669848  
H492     H      0.819740000000     0.552360000000     0.207180000000     0.0787671  
H493     H      0.465820000000     0.842010000000     0.201580000000     0.0324969  
H494     H      0.466430000000     0.899420000000     0.200960000000     0.0359844  
H495     H      0.521720000000     0.899930000000     0.284830000000     0.043334   
H496     H      0.550610000000     0.827760000000     0.283470000000     0.0847729  
H497     H      0.533900000000     0.854230000000     0.311950000000     0.068796   
H498     H      0.013270000000     0.818790000000     0.302490000000     0.0835386  
H499     H      0.524130000000     0.649630000000     0.209850000000     0.0342199  
H500     H      0.523100000000     0.592700000000     0.208860000000     0.0371519  
H501     H      0.965870000000     0.591530000000     0.291420000000     0.0428606  
H502     H      0.936960000000     0.663760000000     0.289110000000     0.0837111  
H503     H      0.953410000000     0.637970000000     0.318460000000     0.0694932  
H504     H      0.973660000000     0.673670000000     0.308800000000     0.0813705  
H505     H      0.839470000000     0.714770000000     0.957940000000     0.0265346  
H506     H      0.896620000000     0.712120000000     0.959020000000     0.0322796  
H507     H      0.899090000000     0.784020000000     0.529070000000     0.0416564  
H508     H      0.827410000000     0.778210000000     0.557850000000     0.0826442  
H509     H      0.853550000000     0.809440000000     0.546120000000     0.0683355  
H510     H      0.817630000000     0.803810000000     0.524930000000     0.0805066  
H511     H      0.648030000000     0.705360000000     0.967010000000     0.0321073  
H512     H      0.590770000000     0.703950000000     0.967850000000     0.0347366  
H513     H      0.589080000000     0.788040000000     0.522770000000     0.042126   
H514     H      0.671070000000     0.805490000000     0.516570000000     0.0784548  
H515     H      0.634900000000     0.815270000000     0.535690000000     0.068958   
H516     H      0.660240000000     0.786110000000     0.553130000000     0.0843651  
H517     H      0.776990000000     0.842580000000     0.527150000000     0.027596   
H518     H      0.778680000000     0.899390000000     0.526310000000     0.0350089  
H519     H      0.704270000000     0.901400000000     0.959000000000     0.0398092  
H520     H      0.685440000000     0.819750000000     0.962620000000     0.0772407  
H521     H      0.680070000000     0.855510000000     0.941010000000     0.0670525  
H522     H      0.711140000000     0.829070000000     0.929690000000     0.0824192  
H523     H      0.707090000000     0.650760000000     0.530030000000     0.0322149  
H524     H      0.704570000000     0.593480000000     0.527970000000     0.0373912  
H525     H      0.786930000000     0.591640000000     0.470420000000     0.0445352  
H526     H      0.806180000000     0.673090000000     0.480430000000     0.0792149  
H527     H      0.816010000000     0.637300000000     0.460540000000     0.0688325  
H528     H      0.787540000000     0.663450000000     0.943090000000     0.0834839  
H529     H      0.713420000000     0.537950000000     0.899960000000     0.0325814  
H530     H      0.714780000000     0.539990000000     0.842660000000     0.0353331  
H531     H      0.771300000000     0.956910000000     0.840860000000     0.0435811  
H532     H      0.761730000000     0.937350000000     0.921840000000     0.0805919  
H533     H      0.781900000000     0.928140000000     0.886090000000     0.0678357  
H534     H      0.799130000000     0.956200000000     0.912730000000     0.0829994  
H535     H      0.703910000000     0.965340000000     0.650190000000     0.0311829  
H536     H      0.701900000000     0.966200000000     0.592810000000     0.0361682  
H537     H      0.785110000000     0.522450000000     0.590530000000     0.0449663  
H538     H      0.804290000000     0.513240000000     0.671240000000     0.0781173  
H539     H      0.813380000000     0.534030000000     0.635770000000     0.0689083  
H540     H      0.785130000000     0.550750000000     0.662530000000     0.0806211  
H541     H      0.532920000000     0.720270000000     0.898570000000     0.0318564  
H542     H      0.534440000000     0.720480000000     0.841590000000     0.0358001  
H543     H      0.955130000000     0.782070000000     0.839110000000     0.0416893  
H544     H      0.959020000000     0.810890000000     0.912900000000     0.0828433  
H545     H      0.929820000000     0.798850000000     0.884740000000     0.0686043  
H546     H      0.935390000000     0.775820000000     0.919670000000     0.0807351  
H547     H      0.533140000000     0.771530000000     0.590060000000     0.0318314  
H548     H      0.534860000000     0.770530000000     0.647020000000     0.0371404  
H549     H      0.953510000000     0.711650000000     0.649050000000     0.0431934  
H550     H      0.956150000000     0.683530000000     0.575070000000     0.0845462  
H551     H      0.927360000000     0.696560000000     0.603230000000     0.069341   
H552     H      0.933920000000     0.719530000000     0.568440000000     0.080902   
H553     H      0.646940000000     0.021010000000     0.703660000000     0.0326752  
H554     H      0.589750000000     0.019520000000     0.702560000000     0.0372548  
H555     H      0.588900000000     0.470610000000     0.790340000000     0.0422939  
H556     H      0.670140000000     0.480440000000     0.807500000000     0.0811908  
H557     H      0.635080000000     0.459440000000     0.817860000000     0.0695396  
H558     H      0.662110000000     0.442100000000     0.790250000000     0.0844628  
H559     H      0.838610000000     0.955140000000     0.768980000000     0.0363096  
H560     H      0.895660000000     0.954280000000     0.771290000000     0.030866   
H561     H      0.899920000000     0.542260000000     0.723690000000     0.0386981  
H562     H      0.828970000000     0.569290000000     0.745260000000     0.0829233  
H563     H      0.856140000000     0.572210000000     0.713040000000     0.0668309  
H564     H      0.819740000000     0.552360000000     0.707180000000     0.0786797  
H565     H      0.465820000000     0.842010000000     0.701580000000     0.0323459  
H566     H      0.466430000000     0.899420000000     0.700960000000     0.0357904  
H567     H      0.521720000000     0.899930000000     0.784830000000     0.0432438  
H568     H      0.550610000000     0.827760000000     0.783470000000     0.0847032  
H569     H      0.533900000000     0.854230000000     0.811950000000     0.068646   
H570     H      0.013270000000     0.818790000000     0.802490000000     0.0834751  
H571     H      0.524130000000     0.649630000000     0.709850000000     0.0340782  
H572     H      0.523100000000     0.592700000000     0.708860000000     0.0369815  
H573     H      0.965870000000     0.591530000000     0.791420000000     0.0427518  
H574     H      0.936960000000     0.663760000000     0.789110000000     0.0836607  
H575     H      0.953410000000     0.637970000000     0.818460000000     0.0693564  
H576     H      0.973660000000     0.673670000000     0.808800000000     0.0813107  
N1       N      0.401620000000     0.247890000000     0.994220000000    -0.179596   
N2       N      0.336110000000     0.249050000000     0.994880000000    -0.199216   
N3       N      0.086130000000     0.246050000000     0.995270000000    -0.178142   
N4       N      0.151610000000     0.246360000000     0.996260000000    -0.199035   
N5       N      0.241430000000     0.404190000000     0.492660000000    -0.176038   
N6       N      0.241250000000     0.338580000000     0.491640000000    -0.197053   
N7       N      0.245450000000     0.088640000000     0.498760000000    -0.173884   
N8       N      0.247260000000     0.154160000000     0.499730000000    -0.197142   
N9       N      0.243160000000     0.998550000000     0.337850000000    -0.178541   
N10      N      0.243060000000     0.497220000000     0.403400000000    -0.19702    
N11      N      0.243380000000     0.994480000000     0.087760000000    -0.178371   
N12      N      0.244550000000     0.995070000000     0.153290000000    -0.199937   
N13      N      0.994640000000     0.251100000000     0.336450000000    -0.177298   
N14      N      0.994220000000     0.252510000000     0.402040000000    -0.199309   
N15      N      0.994110000000     0.241160000000     0.151970000000    -0.175808   
N16      N      0.993400000000     0.240620000000     0.086340000000    -0.19845    
N17      N      0.085470000000     0.495000000000     0.246480000000    -0.174635   
N18      N      0.150940000000     0.494730000000     0.246550000000    -0.196944   
N19      N      0.401190000000     0.497860000000     0.246790000000    -0.177087   
N20      N      0.335660000000     0.500530000000     0.246620000000    -0.194763   
N21      N      0.994010000000     0.403570000000     0.242990000000    -0.177211   
N22      N      0.495020000000     0.337980000000     0.242540000000    -0.196514   
N23      N      0.494210000000     0.088220000000     0.250030000000    -0.174372   
N24      N      0.493780000000     0.153800000000     0.249980000000    -0.196422   
N25      N      0.401620000000     0.247890000000     0.494220000000    -0.176556   
N26      N      0.336110000000     0.249050000000     0.494880000000    -0.197196   
N27      N      0.086130000000     0.246050000000     0.495270000000    -0.17514    
N28      N      0.151610000000     0.246360000000     0.496260000000    -0.196964   
N29      N      0.241430000000     0.404190000000     0.992660000000    -0.17905    
N30      N      0.241250000000     0.338580000000     0.991640000000    -0.199033   
N31      N      0.245450000000     0.088640000000     0.998760000000    -0.175767   
N32      N      0.247260000000     0.154160000000     0.999730000000    -0.199153   
N33      N      0.243160000000     0.998550000000     0.837850000000    -0.178571   
N34      N      0.243060000000     0.497220000000     0.903400000000    -0.196928   
N35      N      0.243380000000     0.994480000000     0.587760000000    -0.178864   
N36      N      0.244550000000     0.995070000000     0.653290000000    -0.199925   
N37      N      0.994640000000     0.251100000000     0.836450000000    -0.177316   
N38      N      0.994220000000     0.252510000000     0.902040000000    -0.199258   
N39      N      0.994110000000     0.241160000000     0.651970000000    -0.175864   
N40      N      0.993400000000     0.240620000000     0.586340000000    -0.198795   
N41      N      0.085470000000     0.495000000000     0.746480000000    -0.174667   
N42      N      0.150940000000     0.494730000000     0.746550000000    -0.196972   
N43      N      0.401190000000     0.497860000000     0.746790000000    -0.177116   
N44      N      0.335660000000     0.500530000000     0.746620000000    -0.194783   
N45      N      0.994010000000     0.403570000000     0.742990000000    -0.17725    
N46      N      0.495020000000     0.337980000000     0.742530000000    -0.196509   
N47      N      0.494210000000     0.088220000000     0.750040000000    -0.174447   
N48      N      0.493780000000     0.153800000000     0.749980000000    -0.196424   
N49      N      0.401620000000     0.747890000000     0.994220000000    -0.179644   
N50      N      0.336110000000     0.749050000000     0.994880000000    -0.199215   
N51      N      0.086130000000     0.746050000000     0.995270000000    -0.178194   
N52      N      0.151610000000     0.746350000000     0.996260000000    -0.199032   
N53      N      0.241430000000     0.904190000000     0.492660000000    -0.175959   
N54      N      0.241250000000     0.838580000000     0.491640000000    -0.197049   
N55      N      0.245450000000     0.588640000000     0.498760000000    -0.174546   
N56      N      0.247260000000     0.654160000000     0.499730000000    -0.197126   
N57      N      0.243160000000     0.498550000000     0.337850000000    -0.175696   
N58      N      0.243060000000     0.997220000000     0.403400000000    -0.199556   
N59      N      0.243380000000     0.494480000000     0.087760000000    -0.174241   
N60      N      0.244550000000     0.495070000000     0.153290000000    -0.197051   
N61      N      0.994640000000     0.751100000000     0.336450000000    -0.177321   
N62      N      0.994220000000     0.752510000000     0.402040000000    -0.199339   
N63      N      0.994110000000     0.741160000000     0.151970000000    -0.175822   
N64      N      0.993400000000     0.740620000000     0.086340000000    -0.198532   
N65      N      0.085470000000     0.995000000000     0.246480000000    -0.178785   
N66      N      0.150940000000     0.994730000000     0.246550000000    -0.199591   
N67      N      0.401190000000     0.997860000000     0.246790000000    -0.180909   
N68      N      0.335660000000     0.000530000000     0.246620000000    -0.183883   
N69      N      0.994010000000     0.903570000000     0.242990000000    -0.177131   
N70      N      0.495020000000     0.837980000000     0.242540000000    -0.196526   
N71      N      0.494210000000     0.588220000000     0.250030000000    -0.175041   
N72      N      0.493780000000     0.653800000000     0.249980000000    -0.1964     
N73      N      0.401620000000     0.747890000000     0.494220000000    -0.176599   
N74      N      0.336110000000     0.749050000000     0.494880000000    -0.197193   
N75      N      0.086130000000     0.746050000000     0.495270000000    -0.175187   
N76      N      0.151610000000     0.746350000000     0.496260000000    -0.19696    
N77      N      0.241430000000     0.904190000000     0.992660000000    -0.178971   
N78      N      0.241250000000     0.838580000000     0.991640000000    -0.199029   
N79      N      0.245450000000     0.588640000000     0.998760000000    -0.176432   
N80      N      0.247260000000     0.654160000000     0.999730000000    -0.199144   
N81      N      0.243160000000     0.498550000000     0.837850000000    -0.175727   
N82      N      0.243060000000     0.997220000000     0.903400000000    -0.199464   
N83      N      0.243380000000     0.494480000000     0.587760000000    -0.174721   
N84      N      0.244550000000     0.495070000000     0.653290000000    -0.197031   
N85      N      0.994640000000     0.751100000000     0.836450000000    -0.177339   
N86      N      0.994220000000     0.752510000000     0.902040000000    -0.199289   
N87      N      0.994110000000     0.741160000000     0.651970000000    -0.175879   
N88      N      0.993400000000     0.740620000000     0.586340000000    -0.198879   
N89      N      0.085470000000     0.995000000000     0.746480000000    -0.178823   
N90      N      0.150940000000     0.994730000000     0.746550000000    -0.199622   
N91      N      0.401190000000     0.997860000000     0.746790000000    -0.180943   
N92      N      0.335660000000     0.000530000000     0.746620000000    -0.183889   
N93      N      0.994010000000     0.903570000000     0.742990000000    -0.17717    
N94      N      0.495020000000     0.837980000000     0.742530000000    -0.196521   
N95      N      0.494210000000     0.588220000000     0.750040000000    -0.175118   
N96      N      0.493780000000     0.653800000000     0.749980000000    -0.196402   
N97      N      0.901620000000     0.247890000000     0.994220000000    -0.179567   
N98      N      0.836110000000     0.249050000000     0.994880000000    -0.199166   
N99      N      0.586130000000     0.246050000000     0.995270000000    -0.178497   
N100     N      0.651610000000     0.246360000000     0.996260000000    -0.199038   
N101     N      0.741430000000     0.404190000000     0.492660000000    -0.176061   
N102     N      0.741250000000     0.338580000000     0.491640000000    -0.197053   
N103     N      0.745450000000     0.088640000000     0.498760000000    -0.173908   
N104     N      0.747260000000     0.154160000000     0.499730000000    -0.197155   
N105     N      0.743150000000     0.998550000000     0.337850000000    -0.178568   
N106     N      0.743050000000     0.497220000000     0.403400000000    -0.19701    
N107     N      0.743380000000     0.994480000000     0.087760000000    -0.178424   
N108     N      0.744550000000     0.995070000000     0.153290000000    -0.199937   
N109     N      0.494640000000     0.251100000000     0.336450000000    -0.175779   
N110     N      0.494220000000     0.252510000000     0.402040000000    -0.197076   
N111     N      0.494100000000     0.241160000000     0.151970000000    -0.174307   
N112     N      0.493400000000     0.240620000000     0.086340000000    -0.196227   
N113     N      0.585470000000     0.495000000000     0.246480000000    -0.17497    
N114     N      0.650940000000     0.494730000000     0.246550000000    -0.196954   
N115     N      0.901190000000     0.497860000000     0.246790000000    -0.176988   
N116     N      0.835660000000     0.500530000000     0.246620000000    -0.19477    
N117     N      0.494010000000     0.403570000000     0.242990000000    -0.174958   
N118     N      0.995020000000     0.337980000000     0.242540000000    -0.198069   
N119     N      0.994200000000     0.088220000000     0.250030000000    -0.176641   
N120     N      0.993780000000     0.153800000000     0.249980000000    -0.197856   
N121     N      0.901620000000     0.247890000000     0.494220000000    -0.176527   
N122     N      0.836110000000     0.249050000000     0.494880000000    -0.197144   
N123     N      0.586130000000     0.246050000000     0.495270000000    -0.175482   
N124     N      0.651610000000     0.246360000000     0.496260000000    -0.196961   
N125     N      0.741430000000     0.404190000000     0.992660000000    -0.179077   
N126     N      0.741250000000     0.338580000000     0.991640000000    -0.199036   
N127     N      0.745450000000     0.088640000000     0.998760000000    -0.175793   
N128     N      0.747260000000     0.154160000000     0.999730000000    -0.199169   
N129     N      0.743150000000     0.998550000000     0.837850000000    -0.178598   
N130     N      0.743050000000     0.497220000000     0.903400000000    -0.196919   
N131     N      0.743380000000     0.994480000000     0.587760000000    -0.178919   
N132     N      0.744550000000     0.995070000000     0.653290000000    -0.199925   
N133     N      0.494640000000     0.251100000000     0.836450000000    -0.175795   
N134     N      0.494220000000     0.252510000000     0.902040000000    -0.197025   
N135     N      0.494100000000     0.241160000000     0.651970000000    -0.174358   
N136     N      0.493400000000     0.240620000000     0.586340000000    -0.196563   
N137     N      0.585470000000     0.495000000000     0.746480000000    -0.175003   
N138     N      0.650940000000     0.494730000000     0.746550000000    -0.196981   
N139     N      0.901190000000     0.497860000000     0.746790000000    -0.177017   
N140     N      0.835660000000     0.500530000000     0.746620000000    -0.194791   
N141     N      0.494010000000     0.403570000000     0.742990000000    -0.174993   
N142     N      0.995020000000     0.337980000000     0.742530000000    -0.198066   
N143     N      0.994200000000     0.088220000000     0.750040000000    -0.17672    
N144     N      0.993780000000     0.153800000000     0.749980000000    -0.197862   
N145     N      0.901620000000     0.747890000000     0.994220000000    -0.179615   
N146     N      0.836110000000     0.749050000000     0.994880000000    -0.199166   
N147     N      0.586130000000     0.746050000000     0.995270000000    -0.178551   
N148     N      0.651610000000     0.746350000000     0.996260000000    -0.199036   
N149     N      0.741430000000     0.904190000000     0.492660000000    -0.175982   
N150     N      0.741250000000     0.838580000000     0.491640000000    -0.197048   
N151     N      0.745450000000     0.588640000000     0.498760000000    -0.17457    
N152     N      0.747260000000     0.654160000000     0.499730000000    -0.197139   
N153     N      0.743150000000     0.498550000000     0.337850000000    -0.175717   
N154     N      0.743050000000     0.997220000000     0.403400000000    -0.199551   
N155     N      0.743380000000     0.494480000000     0.087760000000    -0.174287   
N156     N      0.744550000000     0.495070000000     0.153290000000    -0.197047   
N157     N      0.494640000000     0.751100000000     0.336450000000    -0.175797   
N158     N      0.494220000000     0.752510000000     0.402040000000    -0.1971     
N159     N      0.494100000000     0.741160000000     0.151970000000    -0.174317   
N160     N      0.493400000000     0.740620000000     0.086340000000    -0.196303   
N161     N      0.585470000000     0.995000000000     0.246480000000    -0.179137   
N162     N      0.650940000000     0.994730000000     0.246550000000    -0.199609   
N163     N      0.901190000000     0.997860000000     0.246790000000    -0.180813   
N164     N      0.835660000000     0.000530000000     0.246620000000    -0.183881   
N165     N      0.494010000000     0.903570000000     0.242990000000    -0.174874   
N166     N      0.995020000000     0.837980000000     0.242540000000    -0.198084   
N167     N      0.994200000000     0.588220000000     0.250030000000    -0.177322   
N168     N      0.993780000000     0.653800000000     0.249980000000    -0.197841   
N169     N      0.901620000000     0.747890000000     0.494220000000    -0.17657    
N170     N      0.836110000000     0.749050000000     0.494880000000    -0.197141   
N171     N      0.586130000000     0.746050000000     0.495270000000    -0.175531   
N172     N      0.651610000000     0.746350000000     0.496260000000    -0.196957   
N173     N      0.741430000000     0.904190000000     0.992660000000    -0.178998   
N174     N      0.741250000000     0.838580000000     0.991640000000    -0.199032   
N175     N      0.745450000000     0.588640000000     0.998760000000    -0.17646    
N176     N      0.747260000000     0.654160000000     0.999730000000    -0.19916    
N177     N      0.743150000000     0.498550000000     0.837850000000    -0.175748   
N178     N      0.743050000000     0.997220000000     0.903400000000    -0.199459   
N179     N      0.743380000000     0.494480000000     0.587760000000    -0.174769   
N180     N      0.744550000000     0.495070000000     0.653290000000    -0.197027   
N181     N      0.494640000000     0.751100000000     0.836450000000    -0.175814   
N182     N      0.494220000000     0.752510000000     0.902040000000    -0.197048   
N183     N      0.494100000000     0.741160000000     0.651970000000    -0.174368   
N184     N      0.493400000000     0.740620000000     0.586340000000    -0.19664    
N185     N      0.585470000000     0.995000000000     0.746480000000    -0.179175   
N186     N      0.650940000000     0.994730000000     0.746550000000    -0.199641   
N187     N      0.901190000000     0.997860000000     0.746790000000    -0.180847   
N188     N      0.835660000000     0.000530000000     0.746620000000    -0.183886   
N189     N      0.494010000000     0.903570000000     0.742990000000    -0.174909   
N190     N      0.995020000000     0.837980000000     0.742530000000    -0.198081   
N191     N      0.994200000000     0.588220000000     0.750040000000    -0.177403   
N192     N      0.993780000000     0.653800000000     0.749980000000    -0.197847   
Ni1      Ni     0.993170000000     0.497390000000     0.218500000000     0.996398   
Ni2      Ni     0.993120000000     0.994390000000     0.274520000000     0.988777   
Ni3      Ni     0.466380000000     0.246190000000     0.244310000000     0.983501   
Ni4      Ni     0.022170000000     0.245530000000     0.244190000000     1.00518    
Ni5      Ni     0.242100000000     0.025360000000     0.244710000000     0.995236   
Ni6      Ni     0.243920000000     0.469390000000     0.246310000000     1.00236    
Ni7      Ni     0.270850000000     0.495770000000     0.495550000000     1.00957    
Ni8      Ni     0.215070000000     0.496990000000     0.995520000000     0.971441   
Ni9      Ni     0.993570000000     0.218680000000     0.991910000000     0.985554   
Ni10     Ni     0.994130000000     0.274620000000     0.496470000000     0.997188   
Ni11     Ni     0.243610000000     0.244630000000     0.467590000000     0.994133   
Ni12     Ni     0.244000000000     0.247860000000     0.023630000000     1.00259    
Ni13     Ni     0.993170000000     0.497390000000     0.718500000000     0.996041   
Ni14     Ni     0.993120000000     0.994390000000     0.774520000000     0.988726   
Ni15     Ni     0.466380000000     0.246190000000     0.744310000000     0.983501   
Ni16     Ni     0.022170000000     0.245530000000     0.744190000000     1.00516    
Ni17     Ni     0.242100000000     0.025360000000     0.744710000000     0.99519    
Ni18     Ni     0.243920000000     0.469390000000     0.746310000000     1.00255    
Ni19     Ni     0.270850000000     0.495770000000     0.995550000000     1.00402    
Ni20     Ni     0.215070000000     0.496990000000     0.495520000000     0.983246   
Ni21     Ni     0.993570000000     0.218680000000     0.491910000000     0.991161   
Ni22     Ni     0.994130000000     0.274620000000     0.996470000000     0.990903   
Ni23     Ni     0.243610000000     0.244630000000     0.967590000000     0.986916   
Ni24     Ni     0.244000000000     0.247860000000     0.523630000000     0.999194   
Ni25     Ni     0.993170000000     0.997390000000     0.218500000000     0.979415   
Ni26     Ni     0.993120000000     0.494390000000     0.274520000000     0.996141   
Ni27     Ni     0.466380000000     0.746190000000     0.244310000000     0.983501   
Ni28     Ni     0.022170000000     0.745530000000     0.244190000000     1.00513    
Ni29     Ni     0.242100000000     0.525370000000     0.244710000000     0.990733   
Ni30     Ni     0.243920000000     0.969390000000     0.246310000000     0.991636   
Ni31     Ni     0.270850000000     0.995770000000     0.495550000000     1.0016     
Ni32     Ni     0.215070000000     0.997000000000     0.995520000000     0.955105   
Ni33     Ni     0.993570000000     0.718680000000     0.991910000000     0.985062   
Ni34     Ni     0.994130000000     0.774620000000     0.496470000000     0.99707    
Ni35     Ni     0.243610000000     0.744630000000     0.467590000000     0.994118   
Ni36     Ni     0.244000000000     0.747860000000     0.023630000000     1.00258    
Ni37     Ni     0.993170000000     0.997390000000     0.718500000000     0.979032   
Ni38     Ni     0.993120000000     0.494390000000     0.774520000000     0.99609    
Ni39     Ni     0.466380000000     0.746190000000     0.744310000000     0.9835     
Ni40     Ni     0.022170000000     0.745530000000     0.744190000000     1.00511    
Ni41     Ni     0.242100000000     0.525370000000     0.744710000000     0.990679   
Ni42     Ni     0.243920000000     0.969390000000     0.746310000000     0.991815   
Ni43     Ni     0.270850000000     0.995770000000     0.995550000000     0.996092   
Ni44     Ni     0.215070000000     0.997000000000     0.495520000000     0.966844   
Ni45     Ni     0.993570000000     0.718680000000     0.491910000000     0.99068    
Ni46     Ni     0.994130000000     0.774620000000     0.996470000000     0.990784   
Ni47     Ni     0.243610000000     0.744630000000     0.967590000000     0.986889   
Ni48     Ni     0.244000000000     0.747860000000     0.523630000000     0.99917    
Ni49     Ni     0.493170000000     0.497390000000     0.218500000000     1.00074    
Ni50     Ni     0.493120000000     0.994390000000     0.274520000000     0.993128   
Ni51     Ni     0.966380000000     0.246190000000     0.244310000000     0.978079   
Ni52     Ni     0.522170000000     0.245530000000     0.244190000000     1.0025     
Ni53     Ni     0.742100000000     0.025360000000     0.244710000000     0.995258   
Ni54     Ni     0.743920000000     0.469390000000     0.246310000000     1.00216    
Ni55     Ni     0.770850000000     0.495770000000     0.495550000000     1.00957    
Ni56     Ni     0.715070000000     0.496990000000     0.995520000000     0.971055   
Ni57     Ni     0.493570000000     0.218680000000     0.991910000000     0.989821   
Ni58     Ni     0.494130000000     0.274620000000     0.496470000000     1.00159    
Ni59     Ni     0.743610000000     0.244630000000     0.467590000000     0.994175   
Ni60     Ni     0.744000000000     0.247860000000     0.023630000000     1.0026     
Ni61     Ni     0.493170000000     0.497390000000     0.718500000000     1.00039    
Ni62     Ni     0.493120000000     0.994390000000     0.774520000000     0.993081   
Ni63     Ni     0.966380000000     0.246190000000     0.744310000000     0.978066   
Ni64     Ni     0.522170000000     0.245530000000     0.744190000000     1.00248    
Ni65     Ni     0.742100000000     0.025360000000     0.744710000000     0.995212   
Ni66     Ni     0.743920000000     0.469390000000     0.746310000000     1.00235    
Ni67     Ni     0.770850000000     0.495770000000     0.995550000000     1.00403    
Ni68     Ni     0.715070000000     0.496990000000     0.495520000000     0.982885   
Ni69     Ni     0.493570000000     0.218680000000     0.491910000000     0.995442   
Ni70     Ni     0.494130000000     0.274620000000     0.996470000000     0.995289   
Ni71     Ni     0.743610000000     0.244630000000     0.967590000000     0.986945   
Ni72     Ni     0.744000000000     0.247860000000     0.523630000000     0.999199   
Ni73     Ni     0.493170000000     0.997390000000     0.218500000000     0.983738   
Ni74     Ni     0.493120000000     0.494390000000     0.274520000000     1.0005     
Ni75     Ni     0.966380000000     0.746190000000     0.244310000000     0.978062   
Ni76     Ni     0.522170000000     0.745530000000     0.244190000000     1.00244    
Ni77     Ni     0.742100000000     0.525370000000     0.244710000000     0.990745   
Ni78     Ni     0.743920000000     0.969390000000     0.246310000000     0.991413   
Ni79     Ni     0.770850000000     0.995770000000     0.495550000000     1.0016     
Ni80     Ni     0.715070000000     0.997000000000     0.995520000000     0.954685   
Ni81     Ni     0.493570000000     0.718680000000     0.991910000000     0.989342   
Ni82     Ni     0.494130000000     0.774620000000     0.496470000000     1.00148    
Ni83     Ni     0.743610000000     0.744630000000     0.467590000000     0.99416    
Ni84     Ni     0.744000000000     0.747860000000     0.023630000000     1.00259    
Ni85     Ni     0.493170000000     0.997390000000     0.718500000000     0.983365   
Ni86     Ni     0.493120000000     0.494390000000     0.774520000000     1.00046    
Ni87     Ni     0.966380000000     0.746190000000     0.744310000000     0.978049   
Ni88     Ni     0.522170000000     0.745530000000     0.744190000000     1.00241    
Ni89     Ni     0.742100000000     0.525370000000     0.744710000000     0.990691   
Ni90     Ni     0.743920000000     0.969390000000     0.746310000000     0.991592   
Ni91     Ni     0.770850000000     0.995770000000     0.995550000000     0.99609    
Ni92     Ni     0.715070000000     0.997000000000     0.495520000000     0.966447   
Ni93     Ni     0.493570000000     0.718680000000     0.491910000000     0.994973   
Ni94     Ni     0.494130000000     0.774620000000     0.996470000000     0.995178   
Ni95     Ni     0.743610000000     0.744630000000     0.967590000000     0.986918   
Ni96     Ni     0.744000000000     0.747860000000     0.523630000000     0.999174   
O1       O      0.490130000000     0.451940000000     0.218510000000    -0.443793   
O2       O      0.996350000000     0.042070000000     0.222320000000    -0.443418   
O3       O      0.038250000000     0.495140000000     0.220190000000    -0.443038   
O4       O      0.448140000000     0.000710000000     0.220700000000    -0.433133   
O5       O      0.448030000000     0.491890000000     0.272520000000    -0.447367   
O6       O      0.038240000000     0.995890000000     0.272730000000    -0.44424    
O7       O      0.490680000000     0.039850000000     0.274480000000    -0.437886   
O8       O      0.995640000000     0.449740000000     0.270680000000    -0.451979   
O9       O      0.468240000000     0.239240000000     0.199550000000    -0.443023   
O10      O      0.468580000000     0.253120000000     0.289030000000    -0.445852   
O11      O      0.468850000000     0.290960000000     0.237560000000    -0.444236   
O12      O      0.468010000000     0.201420000000     0.251340000000    -0.448266   
O13      O      0.019730000000     0.200490000000     0.242560000000    -0.44458    
O14      O      0.020630000000     0.290580000000     0.246050000000    -0.449361   
O15      O      0.020220000000     0.243900000000     0.289330000000    -0.445387   
O16      O      0.020070000000     0.247250000000     0.199050000000    -0.442064   
O17      O      0.197170000000     0.021860000000     0.241510000000    -0.439833   
O18      O      0.287180000000     0.025200000000     0.247390000000    -0.444415   
O19      O      0.245550000000     0.022430000000     0.199780000000    -0.444685   
O20      O      0.238920000000     0.024210000000     0.290110000000    -0.436094   
O21      O      0.246600000000     0.472290000000     0.290980000000    -0.454175   
O22      O      0.241040000000     0.470100000000     0.201050000000    -0.447666   
O23      O      0.289000000000     0.472930000000     0.244370000000    -0.448086   
O24      O      0.198800000000     0.469910000000     0.249210000000    -0.451488   
O25      O      0.268810000000     0.992950000000     0.450620000000    -0.453409   
O26      O      0.268920000000     0.498610000000     0.040420000000    -0.446235   
O27      O      0.267920000000     0.450840000000     0.498380000000    -0.451465   
O28      O      0.269850000000     0.040790000000     0.992830000000    -0.441873   
O29      O      0.218110000000     0.041880000000     0.501340000000    -0.434972   
O30      O      0.216200000000     0.452010000000     0.989630000000    -0.442909   
O31      O      0.216980000000     0.991230000000     0.040500000000    -0.436149   
O32      O      0.217250000000     0.502640000000     0.450590000000    -0.444743   
O33      O      0.490650000000     0.217500000000     0.037300000000    -0.443984   
O34      O      0.996520000000     0.223660000000     0.447340000000    -0.451311   
O35      O      0.038770000000     0.219950000000     0.993900000000    -0.441989   
O36      O      0.448450000000     0.221360000000     0.489110000000    -0.448404   
O37      O      0.449120000000     0.272970000000     0.998840000000    -0.453051   
O38      O      0.039120000000     0.272500000000     0.494970000000    -0.44579    
O39      O      0.491680000000     0.275830000000     0.451040000000    -0.450013   
O40      O      0.996550000000     0.269560000000     0.041110000000    -0.446891   
O41      O      0.198540000000     0.241260000000     0.470110000000    -0.448898   
O42      O      0.288750000000     0.247340000000     0.468930000000    -0.449289   
O43      O      0.247320000000     0.200010000000     0.471620000000    -0.453277   
O44      O      0.239980000000     0.289960000000     0.467380000000    -0.450574   
O45      O      0.245310000000     0.292650000000     0.019530000000    -0.450031   
O46      O      0.242590000000     0.202390000000     0.023890000000    -0.440614   
O47      O      0.289090000000     0.247330000000     0.021460000000    -0.44811    
O48      O      0.198950000000     0.249330000000     0.022010000000    -0.447692   
O49      O      0.490130000000     0.451940000000     0.718510000000    -0.44393    
O50      O      0.996350000000     0.042070000000     0.722320000000    -0.443584   
O51      O      0.038250000000     0.495140000000     0.720190000000    -0.443153   
O52      O      0.448140000000     0.000710000000     0.720700000000    -0.433242   
O53      O      0.448030000000     0.491890000000     0.772520000000    -0.447445   
O54      O      0.038240000000     0.995890000000     0.772730000000    -0.444313   
O55      O      0.490680000000     0.039850000000     0.774470000000    -0.438122   
O56      O      0.995640000000     0.449740000000     0.770680000000    -0.452056   
O57      O      0.468240000000     0.239240000000     0.699550000000    -0.443073   
O58      O      0.468580000000     0.253120000000     0.789030000000    -0.445855   
O59      O      0.468850000000     0.290960000000     0.737560000000    -0.444264   
O60      O      0.468010000000     0.201420000000     0.751340000000    -0.448279   
O61      O      0.019730000000     0.200490000000     0.742560000000    -0.444605   
O62      O      0.020630000000     0.290580000000     0.746050000000    -0.44937    
O63      O      0.020220000000     0.243900000000     0.789330000000    -0.44539    
O64      O      0.020070000000     0.247250000000     0.699050000000    -0.442115   
O65      O      0.197170000000     0.021860000000     0.741510000000    -0.439856   
O66      O      0.287180000000     0.025200000000     0.747390000000    -0.444403   
O67      O      0.245550000000     0.022430000000     0.699780000000    -0.444677   
O68      O      0.238920000000     0.024210000000     0.790110000000    -0.436102   
O69      O      0.246600000000     0.472290000000     0.790980000000    -0.454216   
O70      O      0.241040000000     0.470100000000     0.701060000000    -0.447783   
O71      O      0.289000000000     0.472930000000     0.744370000000    -0.44814    
O72      O      0.198800000000     0.469910000000     0.749210000000    -0.451531   
O73      O      0.268810000000     0.992950000000     0.950620000000    -0.452537   
O74      O      0.268920000000     0.498610000000     0.540420000000    -0.450922   
O75      O      0.267920000000     0.450840000000     0.998380000000    -0.45268    
O76      O      0.269850000000     0.040790000000     0.492830000000    -0.443237   
O77      O      0.218110000000     0.041880000000     0.001340000000    -0.425116   
O78      O      0.216200000000     0.452010000000     0.489630000000    -0.443521   
O79      O      0.216980000000     0.991230000000     0.540500000000    -0.441209   
O80      O      0.217250000000     0.502640000000     0.950590000000    -0.443562   
O81      O      0.490650000000     0.217500000000     0.537300000000    -0.448623   
O82      O      0.996520000000     0.223660000000     0.947340000000    -0.450447   
O83      O      0.038770000000     0.219950000000     0.493900000000    -0.441435   
O84      O      0.448450000000     0.221360000000     0.989110000000    -0.448818   
O85      O      0.449120000000     0.272970000000     0.498840000000    -0.451754   
O86      O      0.039120000000     0.272500000000     0.994970000000    -0.4469     
O87      O      0.491680000000     0.275830000000     0.951030000000    -0.449162   
O88      O      0.996550000000     0.269560000000     0.541110000000    -0.451528   
O89      O      0.198540000000     0.241260000000     0.970110000000    -0.447059   
O90      O      0.288750000000     0.247340000000     0.968930000000    -0.447431   
O91      O      0.247320000000     0.200010000000     0.971620000000    -0.451305   
O92      O      0.239980000000     0.289960000000     0.967380000000    -0.448737   
O93      O      0.245310000000     0.292650000000     0.519530000000    -0.455037   
O94      O      0.242590000000     0.202390000000     0.523890000000    -0.446035   
O95      O      0.289090000000     0.247330000000     0.521460000000    -0.453357   
O96      O      0.198950000000     0.249330000000     0.522010000000    -0.452825   
O97      O      0.490130000000     0.951940000000     0.218510000000    -0.442187   
O98      O      0.996350000000     0.542070000000     0.222320000000    -0.450436   
O99      O      0.038250000000     0.995140000000     0.220190000000    -0.443193   
O100     O      0.448140000000     0.500710000000     0.220700000000    -0.447068   
O101     O      0.448030000000     0.991890000000     0.272520000000    -0.445716   
O102     O      0.038240000000     0.495900000000     0.272730000000    -0.443677   
O103     O      0.490680000000     0.539850000000     0.274480000000    -0.444432   
O104     O      0.995640000000     0.949740000000     0.270680000000    -0.450737   
O105     O      0.468240000000     0.739240000000     0.199550000000    -0.443061   
O106     O      0.468580000000     0.753120000000     0.289030000000    -0.445871   
O107     O      0.468850000000     0.790960000000     0.237560000000    -0.444267   
O108     O      0.468010000000     0.701420000000     0.251340000000    -0.448297   
O109     O      0.019730000000     0.700490000000     0.242560000000    -0.444669   
O110     O      0.020630000000     0.790580000000     0.246050000000    -0.449366   
O111     O      0.020220000000     0.743900000000     0.289330000000    -0.445415   
O112     O      0.020070000000     0.747250000000     0.199050000000    -0.4421     
O113     O      0.197170000000     0.521860000000     0.241510000000    -0.447443   
O114     O      0.287180000000     0.525200000000     0.247390000000    -0.45323    
O115     O      0.245550000000     0.522430000000     0.199780000000    -0.451846   
O116     O      0.238920000000     0.524210000000     0.290110000000    -0.44368    
O117     O      0.246600000000     0.972290000000     0.290980000000    -0.451299   
O118     O      0.241040000000     0.970100000000     0.201050000000    -0.445196   
O119     O      0.289000000000     0.972930000000     0.244370000000    -0.444094   
O120     O      0.198800000000     0.969910000000     0.249210000000    -0.448669   
O121     O      0.268810000000     0.492950000000     0.450620000000    -0.455343   
O122     O      0.268920000000     0.998610000000     0.040420000000    -0.447998   
O123     O      0.267920000000     0.950830000000     0.498380000000    -0.450221   
O124     O      0.269850000000     0.540790000000     0.992830000000    -0.448335   
O125     O      0.218110000000     0.541880000000     0.501340000000    -0.441936   
O126     O      0.216200000000     0.952010000000     0.989630000000    -0.441157   
O127     O      0.216980000000     0.491230000000     0.040500000000    -0.437034   
O128     O      0.217250000000     0.002640000000     0.450590000000    -0.430834   
O129     O      0.490650000000     0.717500000000     0.037300000000    -0.44419    
O130     O      0.996520000000     0.723660000000     0.447340000000    -0.451477   
O131     O      0.038770000000     0.719950000000     0.993900000000    -0.442162   
O132     O      0.448450000000     0.721360000000     0.489110000000    -0.448554   
O133     O      0.449120000000     0.772970000000     0.998840000000    -0.453152   
O134     O      0.039120000000     0.772500000000     0.494970000000    -0.445882   
O135     O      0.491680000000     0.775830000000     0.451040000000    -0.450103   
O136     O      0.996550000000     0.769550000000     0.041110000000    -0.447159   
O137     O      0.198540000000     0.741260000000     0.470110000000    -0.448941   
O138     O      0.288750000000     0.747340000000     0.468930000000    -0.449305   
O139     O      0.247320000000     0.700010000000     0.471620000000    -0.453338   
O140     O      0.239980000000     0.789960000000     0.467380000000    -0.450573   
O141     O      0.245310000000     0.792650000000     0.019530000000    -0.450043   
O142     O      0.242590000000     0.702390000000     0.023890000000    -0.44068    
O143     O      0.289090000000     0.747330000000     0.021460000000    -0.448126   
O144     O      0.198950000000     0.749330000000     0.022010000000    -0.447719   
O145     O      0.490130000000     0.951940000000     0.718510000000    -0.442323   
O146     O      0.996350000000     0.542070000000     0.722320000000    -0.450614   
O147     O      0.038250000000     0.995140000000     0.720190000000    -0.443308   
O148     O      0.448140000000     0.500710000000     0.720700000000    -0.4472     
O149     O      0.448030000000     0.991890000000     0.772520000000    -0.44579    
O150     O      0.038240000000     0.495900000000     0.772730000000    -0.44375    
O151     O      0.490680000000     0.539850000000     0.774470000000    -0.444675   
O152     O      0.995640000000     0.949740000000     0.770680000000    -0.450812   
O153     O      0.468240000000     0.739240000000     0.699550000000    -0.443111   
O154     O      0.468580000000     0.753120000000     0.789030000000    -0.445874   
O155     O      0.468850000000     0.790960000000     0.737560000000    -0.444294   
O156     O      0.468010000000     0.701420000000     0.751340000000    -0.448311   
O157     O      0.019730000000     0.700490000000     0.742560000000    -0.444694   
O158     O      0.020630000000     0.790580000000     0.746050000000    -0.449376   
O159     O      0.020220000000     0.743900000000     0.789330000000    -0.445418   
O160     O      0.020070000000     0.747250000000     0.699050000000    -0.442152   
O161     O      0.197170000000     0.521860000000     0.741510000000    -0.447476   
O162     O      0.287180000000     0.525200000000     0.747390000000    -0.453229   
O163     O      0.245550000000     0.522430000000     0.699780000000    -0.451852   
O164     O      0.238920000000     0.524210000000     0.790110000000    -0.443693   
O165     O      0.246600000000     0.972290000000     0.790980000000    -0.451338   
O166     O      0.241040000000     0.970100000000     0.701060000000    -0.44531    
O167     O      0.289000000000     0.972930000000     0.744370000000    -0.444143   
O168     O      0.198800000000     0.969910000000     0.749210000000    -0.44871    
O169     O      0.268810000000     0.492950000000     0.950620000000    -0.454467   
O170     O      0.268920000000     0.998610000000     0.540420000000    -0.452685   
O171     O      0.267920000000     0.950830000000     0.998380000000    -0.451439   
O172     O      0.269850000000     0.540790000000     0.492830000000    -0.449717   
O173     O      0.218110000000     0.541880000000     0.001340000000    -0.432018   
O174     O      0.216200000000     0.952010000000     0.489630000000    -0.441761   
O175     O      0.216980000000     0.491230000000     0.540500000000    -0.442101   
O176     O      0.217250000000     0.002640000000     0.950590000000    -0.429672   
O177     O      0.490650000000     0.717500000000     0.537300000000    -0.448841   
O178     O      0.996520000000     0.723660000000     0.947340000000    -0.450611   
O179     O      0.038770000000     0.719950000000     0.493900000000    -0.441609   
O180     O      0.448450000000     0.721360000000     0.989110000000    -0.448968   
O181     O      0.449120000000     0.772970000000     0.498840000000    -0.451855   
O182     O      0.039120000000     0.772500000000     0.994970000000    -0.446993   
O183     O      0.491680000000     0.775830000000     0.951030000000    -0.449251   
O184     O      0.996550000000     0.769550000000     0.541110000000    -0.451802   
O185     O      0.198540000000     0.741260000000     0.970110000000    -0.447099   
O186     O      0.288750000000     0.747340000000     0.968930000000    -0.447444   
O187     O      0.247320000000     0.700010000000     0.971620000000    -0.451362   
O188     O      0.239980000000     0.789960000000     0.967380000000    -0.448734   
O189     O      0.245310000000     0.792650000000     0.519530000000    -0.455053   
O190     O      0.242590000000     0.702390000000     0.523890000000    -0.446116   
O191     O      0.289090000000     0.747330000000     0.521460000000    -0.453382   
O192     O      0.198950000000     0.749330000000     0.522010000000    -0.45286    
O193     O      0.990130000000     0.451940000000     0.218510000000    -0.444068   
O194     O      0.496350000000     0.042070000000     0.222320000000    -0.442447   
O195     O      0.538250000000     0.495140000000     0.220190000000    -0.446579   
O196     O      0.948140000000     0.000710000000     0.220700000000    -0.432604   
O197     O      0.948030000000     0.491890000000     0.272520000000    -0.44684    
O198     O      0.538240000000     0.995890000000     0.272730000000    -0.447779   
O199     O      0.990680000000     0.039850000000     0.274480000000    -0.438165   
O200     O      0.495640000000     0.449740000000     0.270680000000    -0.450992   
O201     O      0.968240000000     0.239240000000     0.199550000000    -0.441664   
O202     O      0.968580000000     0.253120000000     0.289030000000    -0.444479   
O203     O      0.968850000000     0.290960000000     0.237560000000    -0.442891   
O204     O      0.968010000000     0.201420000000     0.251340000000    -0.446818   
O205     O      0.519730000000     0.200490000000     0.242560000000    -0.448575   
O206     O      0.520630000000     0.290580000000     0.246050000000    -0.453207   
O207     O      0.520220000000     0.243900000000     0.289330000000    -0.449304   
O208     O      0.520070000000     0.247250000000     0.199050000000    -0.446032   
O209     O      0.697170000000     0.021860000000     0.241510000000    -0.439875   
O210     O      0.787180000000     0.025200000000     0.247390000000    -0.444434   
O211     O      0.745550000000     0.022430000000     0.199780000000    -0.444694   
O212     O      0.738920000000     0.024210000000     0.290110000000    -0.43611    
O213     O      0.746600000000     0.472290000000     0.290980000000    -0.454162   
O214     O      0.741040000000     0.470100000000     0.201050000000    -0.447669   
O215     O      0.789010000000     0.472930000000     0.244370000000    -0.448025   
O216     O      0.698800000000     0.469910000000     0.249210000000    -0.451488   
O217     O      0.768810000000     0.992950000000     0.450620000000    -0.453451   
O218     O      0.768920000000     0.498610000000     0.040420000000    -0.446381   
O219     O      0.767920000000     0.450840000000     0.498380000000    -0.451513   
O220     O      0.769850000000     0.040790000000     0.992830000000    -0.441911   
O221     O      0.718110000000     0.041880000000     0.501340000000    -0.435051   
O222     O      0.716200000000     0.452010000000     0.989630000000    -0.443001   
O223     O      0.716980000000     0.991230000000     0.040500000000    -0.436139   
O224     O      0.717250000000     0.502640000000     0.450590000000    -0.44483    
O225     O      0.990650000000     0.217500000000     0.037300000000    -0.44428    
O226     O      0.496520000000     0.223660000000     0.447340000000    -0.450431   
O227     O      0.538770000000     0.219950000000     0.993900000000    -0.445508   
O228     O      0.948450000000     0.221360000000     0.489110000000    -0.447756   
O229     O      0.949120000000     0.272970000000     0.998840000000    -0.452392   
O230     O      0.539120000000     0.272500000000     0.494970000000    -0.449313   
O231     O      0.991680000000     0.275830000000     0.451040000000    -0.450322   
O232     O      0.496550000000     0.269560000000     0.041110000000    -0.445997   
O233     O      0.698540000000     0.241260000000     0.470110000000    -0.448949   
O234     O      0.788750000000     0.247340000000     0.468930000000    -0.449375   
O235     O      0.747310000000     0.200010000000     0.471620000000    -0.45333    
O236     O      0.739990000000     0.289960000000     0.467380000000    -0.450604   
O237     O      0.745310000000     0.292650000000     0.019530000000    -0.450039   
O238     O      0.742600000000     0.202390000000     0.023890000000    -0.440659   
O239     O      0.789090000000     0.247330000000     0.021460000000    -0.448177   
O240     O      0.698950000000     0.249330000000     0.022010000000    -0.447727   
O241     O      0.990130000000     0.451940000000     0.718510000000    -0.444205   
O242     O      0.496350000000     0.042070000000     0.722320000000    -0.442611   
O243     O      0.538250000000     0.495140000000     0.720190000000    -0.446704   
O244     O      0.948140000000     0.000710000000     0.720700000000    -0.432711   
O245     O      0.948030000000     0.491890000000     0.772520000000    -0.446917   
O246     O      0.538240000000     0.995890000000     0.772730000000    -0.447858   
O247     O      0.990680000000     0.039850000000     0.774470000000    -0.4384     
O248     O      0.495640000000     0.449740000000     0.770680000000    -0.451068   
O249     O      0.968240000000     0.239240000000     0.699550000000    -0.44171    
O250     O      0.968580000000     0.253120000000     0.789030000000    -0.44448    
O251     O      0.968850000000     0.290960000000     0.737560000000    -0.442916   
O252     O      0.968010000000     0.201420000000     0.751340000000    -0.446829   
O253     O      0.519730000000     0.200490000000     0.742560000000    -0.448609   
O254     O      0.520630000000     0.290580000000     0.746050000000    -0.453226   
O255     O      0.520220000000     0.243900000000     0.789330000000    -0.449313   
O256     O      0.520070000000     0.247250000000     0.699050000000    -0.446096   
O257     O      0.697170000000     0.021860000000     0.741510000000    -0.439898   
O258     O      0.787180000000     0.025200000000     0.747390000000    -0.444422   
O259     O      0.745550000000     0.022430000000     0.699780000000    -0.444686   
O260     O      0.738920000000     0.024210000000     0.790110000000    -0.436119   
O261     O      0.746600000000     0.472290000000     0.790980000000    -0.454203   
O262     O      0.741040000000     0.470100000000     0.701060000000    -0.447786   
O263     O      0.789010000000     0.472930000000     0.744370000000    -0.448078   
O264     O      0.698800000000     0.469910000000     0.749210000000    -0.451531   
O265     O      0.768810000000     0.992950000000     0.950620000000    -0.452578   
O266     O      0.768920000000     0.498610000000     0.540420000000    -0.451075   
O267     O      0.767920000000     0.450840000000     0.998380000000    -0.452728   
O268     O      0.769850000000     0.040790000000     0.492830000000    -0.443278   
O269     O      0.718110000000     0.041880000000     0.001340000000    -0.425174   
O270     O      0.716200000000     0.452010000000     0.489630000000    -0.443615   
O271     O      0.716980000000     0.991230000000     0.540500000000    -0.44121    
O272     O      0.717250000000     0.502640000000     0.950590000000    -0.443647   
O273     O      0.990650000000     0.217500000000     0.537300000000    -0.448917   
O274     O      0.496520000000     0.223660000000     0.947340000000    -0.449566   
O275     O      0.538770000000     0.219950000000     0.493900000000    -0.444954   
O276     O      0.948450000000     0.221360000000     0.989110000000    -0.44817    
O277     O      0.949120000000     0.272970000000     0.498840000000    -0.451095   
O278     O      0.539120000000     0.272500000000     0.994970000000    -0.450426   
O279     O      0.991680000000     0.275830000000     0.951030000000    -0.449472   
O280     O      0.496550000000     0.269560000000     0.541110000000    -0.450635   
O281     O      0.698540000000     0.241260000000     0.970110000000    -0.447107   
O282     O      0.788750000000     0.247340000000     0.968930000000    -0.447513   
O283     O      0.747310000000     0.200010000000     0.971620000000    -0.451354   
O284     O      0.739990000000     0.289960000000     0.967380000000    -0.448764   
O285     O      0.745310000000     0.292650000000     0.519530000000    -0.455054   
O286     O      0.742600000000     0.202390000000     0.523890000000    -0.446091   
O287     O      0.789090000000     0.247330000000     0.521460000000    -0.453431   
O288     O      0.698950000000     0.249330000000     0.522010000000    -0.452872   
O289     O      0.990130000000     0.951940000000     0.218510000000    -0.442464   
O290     O      0.496350000000     0.542070000000     0.222320000000    -0.449467   
O291     O      0.538250000000     0.995140000000     0.220190000000    -0.446742   
O292     O      0.948140000000     0.500710000000     0.220700000000    -0.446535   
O293     O      0.948030000000     0.991890000000     0.272520000000    -0.445187   
O294     O      0.538240000000     0.495900000000     0.272730000000    -0.44721    
O295     O      0.990680000000     0.539850000000     0.274480000000    -0.444706   
O296     O      0.495640000000     0.949740000000     0.270680000000    -0.449747   
O297     O      0.968240000000     0.739240000000     0.199550000000    -0.441698   
O298     O      0.968580000000     0.753120000000     0.289030000000    -0.444494   
O299     O      0.968850000000     0.790960000000     0.237560000000    -0.442918   
O300     O      0.968010000000     0.701420000000     0.251340000000    -0.446845   
O301     O      0.519730000000     0.700490000000     0.242560000000    -0.44868    
O302     O      0.520630000000     0.790580000000     0.246050000000    -0.453222   
O303     O      0.520220000000     0.743900000000     0.289330000000    -0.449345   
O304     O      0.520070000000     0.747250000000     0.199050000000    -0.446081   
O305     O      0.697170000000     0.521860000000     0.241510000000    -0.447505   
O306     O      0.787180000000     0.525200000000     0.247390000000    -0.453259   
O307     O      0.745550000000     0.522430000000     0.199780000000    -0.451868   
O308     O      0.738920000000     0.524210000000     0.290110000000    -0.44371    
O309     O      0.746600000000     0.972290000000     0.290980000000    -0.451281   
O310     O      0.741040000000     0.970100000000     0.201050000000    -0.445195   
O311     O      0.789010000000     0.972930000000     0.244370000000    -0.444027   
O312     O      0.698800000000     0.969910000000     0.249210000000    -0.448664   
O313     O      0.768810000000     0.492950000000     0.450620000000    -0.455389   
O314     O      0.768920000000     0.998610000000     0.040420000000    -0.448146   
O315     O      0.767920000000     0.950830000000     0.498380000000    -0.450267   
O316     O      0.769850000000     0.540790000000     0.992830000000    -0.448382   
O317     O      0.718110000000     0.541880000000     0.501340000000    -0.442032   
O318     O      0.716200000000     0.952010000000     0.989630000000    -0.441247   
O319     O      0.716980000000     0.491230000000     0.040500000000    -0.437025   
O320     O      0.717250000000     0.002640000000     0.450590000000    -0.430891   
O321     O      0.990650000000     0.717500000000     0.037300000000    -0.444487   
O322     O      0.496520000000     0.723660000000     0.447340000000    -0.450594   
O323     O      0.538770000000     0.719950000000     0.993900000000    -0.445695   
O324     O      0.948450000000     0.721360000000     0.489110000000    -0.447904   
O325     O      0.949120000000     0.772970000000     0.998840000000    -0.452492   
O326     O      0.539120000000     0.772500000000     0.494970000000    -0.449416   
O327     O      0.991680000000     0.775830000000     0.451040000000    -0.450412   
O328     O      0.496550000000     0.769550000000     0.041110000000    -0.446264   
O329     O      0.698540000000     0.741260000000     0.470110000000    -0.448992   
O330     O      0.788750000000     0.747340000000     0.468930000000    -0.449391   
O331     O      0.747310000000     0.700010000000     0.471620000000    -0.453391   
O332     O      0.739990000000     0.789960000000     0.467380000000    -0.450602   
O333     O      0.745310000000     0.792650000000     0.019530000000    -0.450051   
O334     O      0.742600000000     0.702390000000     0.023890000000    -0.440726   
O335     O      0.789090000000     0.747330000000     0.021460000000    -0.448193   
O336     O      0.698950000000     0.749330000000     0.022010000000    -0.447754   
O337     O      0.990130000000     0.951940000000     0.718510000000    -0.442599   
O338     O      0.496350000000     0.542070000000     0.722320000000    -0.449643   
O339     O      0.538250000000     0.995140000000     0.720190000000    -0.446867   
O340     O      0.948140000000     0.500710000000     0.720700000000    -0.446666   
O341     O      0.948030000000     0.991890000000     0.772520000000    -0.44526    
O342     O      0.538240000000     0.495900000000     0.772730000000    -0.44729    
O343     O      0.990680000000     0.539850000000     0.774470000000    -0.444948   
O344     O      0.495640000000     0.949740000000     0.770680000000    -0.449822   
O345     O      0.968240000000     0.739240000000     0.699550000000    -0.441744   
O346     O      0.968580000000     0.753120000000     0.789030000000    -0.444495   
O347     O      0.968850000000     0.790960000000     0.737560000000    -0.442943   
O348     O      0.968010000000     0.701420000000     0.751340000000    -0.446856   
O349     O      0.519730000000     0.700490000000     0.742560000000    -0.448715   
O350     O      0.520630000000     0.790580000000     0.746050000000    -0.453241   
O351     O      0.520220000000     0.743900000000     0.789330000000    -0.449354   
O352     O      0.520070000000     0.747250000000     0.699050000000    -0.446145   
O353     O      0.697170000000     0.521860000000     0.741510000000    -0.447538   
O354     O      0.787180000000     0.525200000000     0.747390000000    -0.453257   
O355     O      0.745550000000     0.522430000000     0.699780000000    -0.451874   
O356     O      0.738920000000     0.524210000000     0.790110000000    -0.443723   
O357     O      0.746600000000     0.972290000000     0.790980000000    -0.45132    
O358     O      0.741040000000     0.970100000000     0.701060000000    -0.445309   
O359     O      0.789010000000     0.972930000000     0.744370000000    -0.444076   
O360     O      0.698800000000     0.969910000000     0.749210000000    -0.448704   
O361     O      0.768810000000     0.492950000000     0.950620000000    -0.454512   
O362     O      0.768920000000     0.998610000000     0.540420000000    -0.452839   
O363     O      0.767920000000     0.950830000000     0.998380000000    -0.451486   
O364     O      0.769850000000     0.540790000000     0.492830000000    -0.449767   
O365     O      0.718110000000     0.541880000000     0.001340000000    -0.432092   
O366     O      0.716200000000     0.952010000000     0.489630000000    -0.441852   
O367     O      0.716980000000     0.491230000000     0.540500000000    -0.442103   
O368     O      0.717250000000     0.002640000000     0.950590000000    -0.429727   
O369     O      0.990650000000     0.717500000000     0.537300000000    -0.449134   
O370     O      0.496520000000     0.723660000000     0.947340000000    -0.449728   
O371     O      0.538770000000     0.719950000000     0.493900000000    -0.445141   
O372     O      0.948450000000     0.721360000000     0.989110000000    -0.448318   
O373     O      0.949120000000     0.772970000000     0.498840000000    -0.451194   
O374     O      0.539120000000     0.772500000000     0.994970000000    -0.450529   
O375     O      0.991680000000     0.775830000000     0.951030000000    -0.449561   
O376     O      0.496550000000     0.769550000000     0.541110000000    -0.450908   
O377     O      0.698540000000     0.741260000000     0.970110000000    -0.447147   
O378     O      0.788750000000     0.747340000000     0.968930000000    -0.447526   
O379     O      0.747310000000     0.700010000000     0.971620000000    -0.451412   
O380     O      0.739990000000     0.789960000000     0.967380000000    -0.44876    
O381     O      0.745310000000     0.792650000000     0.519530000000    -0.455071   
O382     O      0.742600000000     0.702390000000     0.523890000000    -0.446171   
O383     O      0.789090000000     0.747330000000     0.521460000000    -0.453456   
O384     O      0.698950000000     0.749330000000     0.522010000000    -0.452908   


