data_structure

_audit_creation_method RASPA-1.0
_audit_creation_date 2023-5-19
_audit_author_name 'Poobodin Mano'

_cell_length_a    42.3688
_cell_length_b    42.382
_cell_length_c    42.4056
_cell_angle_alpha 90
_cell_angle_beta  90
_cell_angle_gamma 90
_cell_volume      76146.7

_symmetry_cell_setting          triclinic
_symmetry_space_group_name_Hall 'P 1'
_symmetry_space_group_name_H-M  'P 1'
_symmetry_Int_Tables_number     1

_symmetry_equiv_pos_as_xyz 'x,y,z'

loop_
_atom_site_label
_atom_site_type_symbol
_atom_site_fract_x
_atom_site_fract_y
_atom_site_fract_z
_atom_site_charge
C1       C      0.435210000000     0.997160000000     0.243080000000     0.431596   
C2       C      0.055600000000     0.492710000000     0.244900000000     0.43203    
C3       C      0.497270000000     0.055210000000     0.242770000000     0.432155   
C4       C      0.494060000000     0.434910000000     0.245130000000     0.432856   
C5       C      0.996460000000     0.245310000000     0.185400000000     0.42617    
C6       C      0.995770000000     0.245380000000     0.305420000000     0.429627   
C7       C      0.495830000000     0.304990000000     0.245580000000     0.436595   
C8       C      0.496520000000     0.185070000000     0.244090000000     0.435858   
C9       C      0.305330000000     0.996520000000     0.243450000000     0.432278   
C10      C      0.185280000000     0.990230000000     0.245930000000     0.431318   
C11      C      0.244380000000     0.494880000000     0.185010000000     0.432372   
C12      C      0.246560000000     0.491720000000     0.305240000000     0.43695    
C13      C      0.245700000000     0.993460000000     0.435080000000     0.431886   
C14      C      0.245210000000     0.495770000000     0.055280000000     0.436002   
C15      C      0.248040000000     0.055090000000     0.494520000000     0.431121   
C16      C      0.242720000000     0.434770000000     0.496410000000     0.430814   
C17      C      0.055370000000     0.243320000000     0.995200000000     0.430281   
C18      C      0.435170000000     0.246790000000     0.495920000000     0.431486   
C19      C      0.996270000000     0.244650000000     0.055480000000     0.434369   
C20      C      0.994880000000     0.245590000000     0.435400000000     0.430703   
C21      C      0.249020000000     0.185040000000     0.495620000000     0.434622   
C22      C      0.241600000000     0.304830000000     0.496590000000     0.435303   
C23      C      0.185370000000     0.241530000000     0.995910000000     0.429013   
C24      C      0.305190000000     0.248370000000     0.996230000000     0.430225   
C25      C      0.386130000000     0.224970000000     0.011670000000     0.0346317  
C26      C      0.387140000000     0.271400000000     0.480910000000     0.0177395  
C27      C      0.353290000000     0.226470000000     0.012820000000     0.0371993  
C28      C      0.354090000000     0.271680000000     0.479990000000     0.0704681  
C29      C      0.104400000000     0.264730000000     0.011500000000     0.0350589  
C30      C      0.103430000000     0.218940000000     0.979800000000     0.0175486  
C31      C      0.137240000000     0.263150000000     0.012740000000     0.0372392  
C32      C      0.136490000000     0.218640000000     0.978970000000     0.0689275  
C33      C      0.264900000000     0.385760000000     0.011540000000     0.0333643  
C34      C      0.217180000000     0.386690000000     0.482800000000     0.0176727  
C35      C      0.263630000000     0.352950000000     0.012670000000     0.0370171  
C36      C      0.217170000000     0.353600000000     0.481630000000     0.070245   
C37      C      0.226030000000     0.103940000000     0.010120000000     0.0345941  
C38      C      0.273240000000     0.103280000000     0.980540000000     0.0176801  
C39      C      0.227250000000     0.136740000000     0.011450000000     0.0364238  
C40      C      0.273190000000     0.136390000000     0.979640000000     0.0698848  
C41      C      0.223390000000     0.008180000000     0.386000000000     0.0345594  
C42      C      0.268630000000     0.475660000000     0.387200000000     0.0182617  
C43      C      0.224630000000     0.008600000000     0.353160000000     0.0375036  
C44      C      0.268460000000     0.473920000000     0.354190000000     0.0701095  
C45      C      0.229360000000     0.018520000000     0.136420000000     0.033652   
C46      C      0.260300000000     0.472160000000     0.136660000000     0.0189553  
C47      C      0.228360000000     0.017540000000     0.103470000000     0.0386429  
C48      C      0.261700000000     0.472660000000     0.103750000000     0.070993   
C49      C      0.479040000000     0.223280000000     0.386540000000     0.0307241  
C50      C      0.010800000000     0.269040000000     0.387160000000     0.0218189  
C51      C      0.478280000000     0.224280000000     0.353650000000     0.0332097  
C52      C      0.012010000000     0.268850000000     0.354170000000     0.0727195  
C53      C      0.974270000000     0.261330000000     0.136600000000     0.030416   
C54      C      0.019420000000     0.228700000000     0.137190000000     0.0219748  
C55      C      0.975320000000     0.262130000000     0.103730000000     0.0333014  
C56      C      0.019140000000     0.227420000000     0.104190000000     0.0734125  
C57      C      0.104290000000     0.003200000000     0.270260000000     0.0355204  
C58      C      0.103830000000     0.477340000000     0.220900000000     0.0194687  
C59      C      0.137190000000     0.003380000000     0.269810000000     0.0387253  
C60      C      0.136820000000     0.475050000000     0.221640000000     0.0697154  
C61      C      0.386420000000     0.013790000000     0.265210000000     0.035024   
C62      C      0.386900000000     0.482830000000     0.218920000000     0.0182998  
C63      C      0.353470000000     0.014970000000     0.264050000000     0.0379136  
C64      C      0.353910000000     0.481790000000     0.219110000000     0.0717176  
C65      C      0.480120000000     0.386050000000     0.268970000000     0.0312321  
C66      C      0.009730000000     0.386710000000     0.221800000000     0.0226948  
C67      C      0.479480000000     0.353100000000     0.267970000000     0.0340187  
C68      C      0.011200000000     0.353770000000     0.221960000000     0.0728121  
C69      C      0.012230000000     0.103820000000     0.265950000000     0.0353058  
C70      C      0.983340000000     0.103630000000     0.218330000000     0.0180219  
C71      C      0.012960000000     0.136690000000     0.265390000000     0.037252   
C72      C      0.981840000000     0.136650000000     0.218980000000     0.0696143  
C73      C      0.435210000000     0.997160000000     0.743080000000     0.431844   
C74      C      0.055600000000     0.492710000000     0.744900000000     0.432019   
C75      C      0.497270000000     0.055210000000     0.742780000000     0.432143   
C76      C      0.494060000000     0.434910000000     0.745140000000     0.433094   
C77      C      0.996460000000     0.245310000000     0.685390000000     0.426049   
C78      C      0.995770000000     0.245380000000     0.805420000000     0.42962    
C79      C      0.495830000000     0.304990000000     0.745580000000     0.436601   
C80      C      0.496520000000     0.185070000000     0.744090000000     0.435921   
C81      C      0.305330000000     0.996520000000     0.743450000000     0.432267   
C82      C      0.185280000000     0.990230000000     0.745930000000     0.431313   
C83      C      0.244380000000     0.494880000000     0.685010000000     0.432347   
C84      C      0.246560000000     0.491720000000     0.805240000000     0.436955   
C85      C      0.245700000000     0.993460000000     0.935080000000     0.4316     
C86      C      0.245210000000     0.495770000000     0.555280000000     0.436697   
C87      C      0.248040000000     0.055090000000     0.994520000000     0.430394   
C88      C      0.242720000000     0.434770000000     0.996410000000     0.430076   
C89      C      0.055370000000     0.243320000000     0.495200000000     0.431015   
C90      C      0.435170000000     0.246790000000     0.995920000000     0.430778   
C91      C      0.996270000000     0.244650000000     0.555480000000     0.435022   
C92      C      0.994880000000     0.245590000000     0.935390000000     0.430305   
C93      C      0.249020000000     0.185040000000     0.995620000000     0.429084   
C94      C      0.241600000000     0.304830000000     0.996590000000     0.429739   
C95      C      0.185370000000     0.241530000000     0.495910000000     0.434558   
C96      C      0.305190000000     0.248370000000     0.496230000000     0.435785   
C97      C      0.386130000000     0.224970000000     0.511670000000     0.0307642  
C98      C      0.387140000000     0.271400000000     0.980910000000     0.0170185  
C99      C      0.353290000000     0.226470000000     0.512820000000     0.0338639  
C100     C      0.354090000000     0.271680000000     0.979990000000     0.0698725  
C101     C      0.104400000000     0.264730000000     0.511500000000     0.0312746  
C102     C      0.103430000000     0.218940000000     0.479800000000     0.0181667  
C103     C      0.137240000000     0.263150000000     0.512740000000     0.0338987  
C104     C      0.136490000000     0.218640000000     0.478970000000     0.0696894  
C105     C      0.264900000000     0.385760000000     0.511540000000     0.0295257  
C106     C      0.217180000000     0.386690000000     0.982800000000     0.0169326  
C107     C      0.263630000000     0.352950000000     0.512670000000     0.0337038  
C108     C      0.217170000000     0.353600000000     0.981630000000     0.0696454  
C109     C      0.226030000000     0.103940000000     0.510120000000     0.0307247  
C110     C      0.273240000000     0.103280000000     0.480540000000     0.0183969  
C111     C      0.227250000000     0.136740000000     0.511450000000     0.0330643  
C112     C      0.273190000000     0.136390000000     0.479640000000     0.0704799  
C113     C      0.223390000000     0.008180000000     0.886000000000     0.0345162  
C114     C      0.268630000000     0.475660000000     0.887200000000     0.0182102  
C115     C      0.224630000000     0.008600000000     0.853160000000     0.0374822  
C116     C      0.268460000000     0.473920000000     0.854190000000     0.0701001  
C117     C      0.229360000000     0.018520000000     0.636420000000     0.0335178  
C118     C      0.260300000000     0.472160000000     0.636660000000     0.0187985  
C119     C      0.228360000000     0.017540000000     0.603470000000     0.0384758  
C120     C      0.261700000000     0.472660000000     0.603750000000     0.0709718  
C121     C      0.479040000000     0.223280000000     0.886540000000     0.0306899  
C122     C      0.010800000000     0.269040000000     0.887160000000     0.0217924  
C123     C      0.478280000000     0.224280000000     0.853650000000     0.0331765  
C124     C      0.012010000000     0.268850000000     0.854170000000     0.0727104  
C125     C      0.974270000000     0.261330000000     0.636600000000     0.0302786  
C126     C      0.019420000000     0.228700000000     0.637190000000     0.0218504  
C127     C      0.975320000000     0.262130000000     0.603730000000     0.0331356  
C128     C      0.019140000000     0.227420000000     0.604190000000     0.073452   
C129     C      0.104290000000     0.003200000000     0.770260000000     0.0355083  
C130     C      0.103830000000     0.477340000000     0.720900000000     0.0194226  
C131     C      0.137190000000     0.003380000000     0.769810000000     0.0387113  
C132     C      0.136820000000     0.475050000000     0.721640000000     0.0697173  
C133     C      0.386420000000     0.013790000000     0.765210000000     0.0350205  
C134     C      0.386900000000     0.482830000000     0.718920000000     0.0182522  
C135     C      0.353470000000     0.014970000000     0.764050000000     0.0378894  
C136     C      0.353910000000     0.481790000000     0.719110000000     0.0717103  
C137     C      0.480120000000     0.386050000000     0.768970000000     0.0312092  
C138     C      0.009730000000     0.386710000000     0.721800000000     0.0226725  
C139     C      0.479480000000     0.353100000000     0.767970000000     0.0339963  
C140     C      0.011200000000     0.353770000000     0.721960000000     0.072825   
C141     C      0.012230000000     0.103820000000     0.765950000000     0.0353056  
C142     C      0.983340000000     0.103630000000     0.718330000000     0.0179811  
C143     C      0.012960000000     0.136690000000     0.765400000000     0.037161   
C144     C      0.981840000000     0.136650000000     0.718980000000     0.0696215  
C145     C      0.435210000000     0.497160000000     0.243080000000     0.432272   
C146     C      0.055600000000     0.992710000000     0.244900000000     0.431322   
C147     C      0.497270000000     0.555210000000     0.242770000000     0.432813   
C148     C      0.494060000000     0.934910000000     0.245130000000     0.432524   
C149     C      0.996460000000     0.745320000000     0.185400000000     0.426162   
C150     C      0.995770000000     0.745370000000     0.305420000000     0.429623   
C151     C      0.495830000000     0.804990000000     0.245580000000     0.4366     
C152     C      0.496520000000     0.685070000000     0.244090000000     0.435833   
C153     C      0.305330000000     0.496520000000     0.243450000000     0.437854   
C154     C      0.185280000000     0.490230000000     0.245930000000     0.436983   
C155     C      0.244380000000     0.994880000000     0.185010000000     0.426905   
C156     C      0.246560000000     0.991730000000     0.305240000000     0.431257   
C157     C      0.245700000000     0.493460000000     0.435080000000     0.4326     
C158     C      0.245210000000     0.995770000000     0.055280000000     0.435293   
C159     C      0.248040000000     0.555090000000     0.494520000000     0.431805   
C160     C      0.242720000000     0.934770000000     0.496410000000     0.4305     
C161     C      0.055370000000     0.743320000000     0.995200000000     0.430288   
C162     C      0.435170000000     0.746790000000     0.495920000000     0.43149    
C163     C      0.996270000000     0.744650000000     0.055480000000     0.434115   
C164     C      0.994880000000     0.745590000000     0.435400000000     0.430705   
C165     C      0.249020000000     0.685040000000     0.495620000000     0.434483   
C166     C      0.241600000000     0.804830000000     0.496590000000     0.435312   
C167     C      0.185370000000     0.741530000000     0.995910000000     0.429006   
C168     C      0.305190000000     0.748370000000     0.996230000000     0.430218   
C169     C      0.386130000000     0.724970000000     0.011670000000     0.0346063  
C170     C      0.387140000000     0.771400000000     0.480910000000     0.0177136  
C171     C      0.353290000000     0.726470000000     0.012820000000     0.037152   
C172     C      0.354090000000     0.771680000000     0.479990000000     0.0704638  
C173     C      0.104400000000     0.764730000000     0.011500000000     0.0350464  
C174     C      0.103430000000     0.718940000000     0.979800000000     0.0174996  
C175     C      0.137240000000     0.763150000000     0.012740000000     0.037224   
C176     C      0.136490000000     0.718640000000     0.978970000000     0.0689183  
C177     C      0.264900000000     0.885760000000     0.011540000000     0.0333213  
C178     C      0.217180000000     0.886690000000     0.482800000000     0.0176082  
C179     C      0.263630000000     0.852950000000     0.012670000000     0.0370098  
C180     C      0.217170000000     0.853600000000     0.481630000000     0.0702332  
C181     C      0.226030000000     0.603940000000     0.010120000000     0.034442   
C182     C      0.273240000000     0.603280000000     0.980540000000     0.0174756  
C183     C      0.227250000000     0.636740000000     0.011450000000     0.0363006  
C184     C      0.273190000000     0.636390000000     0.979640000000     0.0697947  
C185     C      0.223390000000     0.508180000000     0.386000000000     0.0307005  
C186     C      0.268630000000     0.975660000000     0.387200000000     0.0175136  
C187     C      0.224630000000     0.508600000000     0.353160000000     0.0342097  
C188     C      0.268460000000     0.973920000000     0.354190000000     0.0694772  
C189     C      0.229360000000     0.518520000000     0.136420000000     0.0302627  
C190     C      0.260300000000     0.972160000000     0.136660000000     0.0181663  
C191     C      0.228360000000     0.517540000000     0.103470000000     0.0347595  
C192     C      0.261700000000     0.972660000000     0.103750000000     0.070617   
C193     C      0.479040000000     0.723280000000     0.386540000000     0.0306056  
C194     C      0.010800000000     0.769040000000     0.387160000000     0.021805   
C195     C      0.478280000000     0.724290000000     0.353650000000     0.0333047  
C196     C      0.012010000000     0.768850000000     0.354170000000     0.0726841  
C197     C      0.974270000000     0.761330000000     0.136600000000     0.0304326  
C198     C      0.019420000000     0.728700000000     0.137190000000     0.0219235  
C199     C      0.975320000000     0.762130000000     0.103730000000     0.0332394  
C200     C      0.019140000000     0.727420000000     0.104190000000     0.0733928  
C201     C      0.104290000000     0.503200000000     0.270260000000     0.0316438  
C202     C      0.103830000000     0.977340000000     0.220900000000     0.0188143  
C203     C      0.137190000000     0.503380000000     0.269810000000     0.0353816  
C204     C      0.136820000000     0.975050000000     0.221640000000     0.0689346  
C205     C      0.386420000000     0.513790000000     0.265210000000     0.0311192  
C206     C      0.386900000000     0.982830000000     0.218920000000     0.0176171  
C207     C      0.353470000000     0.514970000000     0.264050000000     0.034538   
C208     C      0.353910000000     0.981790000000     0.219110000000     0.0710757  
C209     C      0.480120000000     0.886060000000     0.268970000000     0.0311892  
C210     C      0.009730000000     0.886710000000     0.221800000000     0.02263    
C211     C      0.479480000000     0.853100000000     0.267970000000     0.0339814  
C212     C      0.011200000000     0.853770000000     0.221960000000     0.0728035  
C213     C      0.012230000000     0.603820000000     0.265950000000     0.0351337  
C214     C      0.983340000000     0.603630000000     0.218330000000     0.0178031  
C215     C      0.012960000000     0.636690000000     0.265390000000     0.0371103  
C216     C      0.981840000000     0.636650000000     0.218980000000     0.0695012  
C217     C      0.435210000000     0.497160000000     0.743080000000     0.432521   
C218     C      0.055600000000     0.992710000000     0.744900000000     0.431309   
C219     C      0.497270000000     0.555210000000     0.742780000000     0.432803   
C220     C      0.494060000000     0.934910000000     0.745140000000     0.432761   
C221     C      0.996460000000     0.745320000000     0.685390000000     0.426041   
C222     C      0.995770000000     0.745370000000     0.805420000000     0.429616   
C223     C      0.495830000000     0.804990000000     0.745580000000     0.436606   
C224     C      0.496520000000     0.685070000000     0.744090000000     0.435897   
C225     C      0.305330000000     0.496520000000     0.743450000000     0.437854   
C226     C      0.185280000000     0.490230000000     0.745930000000     0.43699    
C227     C      0.244380000000     0.994880000000     0.685010000000     0.426864   
C228     C      0.246560000000     0.991730000000     0.805240000000     0.431254   
C229     C      0.245700000000     0.493460000000     0.935080000000     0.432314   
C230     C      0.245210000000     0.995770000000     0.555280000000     0.435987   
C231     C      0.248040000000     0.555090000000     0.994520000000     0.431077   
C232     C      0.242720000000     0.934770000000     0.996410000000     0.429763   
C233     C      0.055370000000     0.743320000000     0.495200000000     0.431023   
C234     C      0.435170000000     0.746790000000     0.995920000000     0.430781   
C235     C      0.996270000000     0.744650000000     0.555480000000     0.434768   
C236     C      0.994880000000     0.745590000000     0.935390000000     0.430305   
C237     C      0.249020000000     0.685040000000     0.995620000000     0.428929   
C238     C      0.241600000000     0.804830000000     0.996590000000     0.429738   
C239     C      0.185370000000     0.741530000000     0.495910000000     0.434564   
C240     C      0.305190000000     0.748370000000     0.496230000000     0.43579    
C241     C      0.386130000000     0.724970000000     0.511670000000     0.0307286  
C242     C      0.387140000000     0.771400000000     0.980910000000     0.0169917  
C243     C      0.353290000000     0.726470000000     0.512820000000     0.0338072  
C244     C      0.354090000000     0.771680000000     0.979990000000     0.069867   
C245     C      0.104400000000     0.764730000000     0.511500000000     0.0312523  
C246     C      0.103430000000     0.718940000000     0.479800000000     0.0181191  
C247     C      0.137240000000     0.763150000000     0.512740000000     0.0338748  
C248     C      0.136490000000     0.718640000000     0.478970000000     0.0696817  
C249     C      0.264900000000     0.885760000000     0.511540000000     0.0294799  
C250     C      0.217180000000     0.886690000000     0.982800000000     0.0168679  
C251     C      0.263630000000     0.852950000000     0.512670000000     0.0336908  
C252     C      0.217170000000     0.853600000000     0.981630000000     0.0696332  
C253     C      0.226030000000     0.603940000000     0.510120000000     0.0305516  
C254     C      0.273240000000     0.603280000000     0.480540000000     0.0181945  
C255     C      0.227250000000     0.636740000000     0.511450000000     0.0329272  
C256     C      0.273190000000     0.636390000000     0.479640000000     0.0703908  
C257     C      0.223390000000     0.508180000000     0.886000000000     0.0306545  
C258     C      0.268630000000     0.975660000000     0.887200000000     0.0174619  
C259     C      0.224630000000     0.508600000000     0.853160000000     0.0341824  
C260     C      0.268460000000     0.973920000000     0.854190000000     0.0694674  
C261     C      0.229360000000     0.518520000000     0.636420000000     0.0301162  
C262     C      0.260300000000     0.972160000000     0.636660000000     0.0180067  
C263     C      0.228360000000     0.517540000000     0.603470000000     0.034571   
C264     C      0.261700000000     0.972660000000     0.603750000000     0.0705949  
C265     C      0.479040000000     0.723280000000     0.886540000000     0.0305712  
C266     C      0.010800000000     0.769040000000     0.887160000000     0.0217785  
C267     C      0.478280000000     0.724290000000     0.853650000000     0.0332715  
C268     C      0.012010000000     0.768850000000     0.854170000000     0.0726749  
C269     C      0.974270000000     0.761330000000     0.636600000000     0.0302948  
C270     C      0.019420000000     0.728700000000     0.637190000000     0.0217986  
C271     C      0.975320000000     0.762130000000     0.603730000000     0.0330731  
C272     C      0.019140000000     0.727420000000     0.604190000000     0.0734323  
C273     C      0.104290000000     0.503200000000     0.770260000000     0.0316217  
C274     C      0.103830000000     0.977340000000     0.720900000000     0.018767   
C275     C      0.137190000000     0.503380000000     0.769810000000     0.0353586  
C276     C      0.136820000000     0.975050000000     0.721640000000     0.0689349  
C277     C      0.386420000000     0.513790000000     0.765210000000     0.0311058  
C278     C      0.386900000000     0.982830000000     0.718920000000     0.0175683  
C279     C      0.353470000000     0.514970000000     0.764050000000     0.0345051  
C280     C      0.353910000000     0.981790000000     0.719110000000     0.0710671  
C281     C      0.480120000000     0.886060000000     0.768970000000     0.0311662  
C282     C      0.009730000000     0.886710000000     0.721800000000     0.0226075  
C283     C      0.479480000000     0.853100000000     0.767970000000     0.0339589  
C284     C      0.011200000000     0.853770000000     0.721960000000     0.0728164  
C285     C      0.012230000000     0.603820000000     0.765950000000     0.0351331  
C286     C      0.983340000000     0.603630000000     0.718330000000     0.0177615  
C287     C      0.012960000000     0.636690000000     0.765400000000     0.0370187  
C288     C      0.981840000000     0.636650000000     0.718980000000     0.0695082  
C289     C      0.935220000000     0.997160000000     0.243080000000     0.431358   
C290     C      0.555600000000     0.492710000000     0.244900000000     0.432633   
C291     C      0.997270000000     0.055210000000     0.242770000000     0.431438   
C292     C      0.994060000000     0.434910000000     0.245130000000     0.432147   
C293     C      0.496460000000     0.245310000000     0.185400000000     0.431772   
C294     C      0.495770000000     0.245380000000     0.305420000000     0.435312   
C295     C      0.995830000000     0.304990000000     0.245580000000     0.430841   
C296     C      0.996520000000     0.185070000000     0.244090000000     0.430264   
C297     C      0.805330000000     0.996520000000     0.243450000000     0.432272   
C298     C      0.685280000000     0.990230000000     0.245930000000     0.431287   
C299     C      0.744380000000     0.494880000000     0.185010000000     0.432377   
C300     C      0.746570000000     0.491720000000     0.305240000000     0.436939   
C301     C      0.745700000000     0.993460000000     0.435080000000     0.431659   
C302     C      0.745210000000     0.495770000000     0.055280000000     0.436043   
C303     C      0.748040000000     0.055090000000     0.494520000000     0.431154   
C304     C      0.742720000000     0.434770000000     0.496410000000     0.430849   
C305     C      0.555370000000     0.243320000000     0.995200000000     0.431002   
C306     C      0.935170000000     0.246790000000     0.495920000000     0.431174   
C307     C      0.496270000000     0.244650000000     0.055480000000     0.435145   
C308     C      0.494880000000     0.245590000000     0.435400000000     0.431405   
C309     C      0.749020000000     0.185040000000     0.495620000000     0.434626   
C310     C      0.741600000000     0.304830000000     0.496590000000     0.435309   
C311     C      0.685370000000     0.241530000000     0.995910000000     0.428989   
C312     C      0.805190000000     0.248370000000     0.996230000000     0.430221   
C313     C      0.886130000000     0.224970000000     0.011670000000     0.0345786  
C314     C      0.887140000000     0.271400000000     0.480910000000     0.0176716  
C315     C      0.853290000000     0.226470000000     0.012820000000     0.0371754  
C316     C      0.854090000000     0.271680000000     0.479990000000     0.0704527  
C317     C      0.604400000000     0.264730000000     0.011500000000     0.0349665  
C318     C      0.603420000000     0.218940000000     0.979800000000     0.0174549  
C319     C      0.637230000000     0.263150000000     0.012740000000     0.0370995  
C320     C      0.636490000000     0.218640000000     0.978970000000     0.068824   
C321     C      0.764900000000     0.385760000000     0.011540000000     0.0333521  
C322     C      0.717180000000     0.386690000000     0.482800000000     0.0176172  
C323     C      0.763630000000     0.352950000000     0.012670000000     0.0370049  
C324     C      0.717170000000     0.353600000000     0.481630000000     0.0702557  
C325     C      0.726030000000     0.103940000000     0.010120000000     0.0345077  
C326     C      0.773240000000     0.103280000000     0.980540000000     0.0177439  
C327     C      0.727250000000     0.136740000000     0.011450000000     0.03643    
C328     C      0.773200000000     0.136390000000     0.979640000000     0.0698053  
C329     C      0.723390000000     0.008180000000     0.386000000000     0.0345073  
C330     C      0.768630000000     0.475660000000     0.387200000000     0.0182204  
C331     C      0.724630000000     0.008600000000     0.353160000000     0.0374852  
C332     C      0.768460000000     0.473920000000     0.354190000000     0.0700931  
C333     C      0.729360000000     0.018520000000     0.136420000000     0.0336333  
C334     C      0.760290000000     0.472160000000     0.136660000000     0.0189899  
C335     C      0.728360000000     0.017540000000     0.103470000000     0.0385971  
C336     C      0.761700000000     0.472660000000     0.103750000000     0.0709496  
C337     C      0.979040000000     0.223280000000     0.386540000000     0.0300906  
C338     C      0.510800000000     0.269040000000     0.387160000000     0.0177649  
C339     C      0.978280000000     0.224280000000     0.353650000000     0.0322486  
C340     C      0.512010000000     0.268850000000     0.354170000000     0.0701555  
C341     C      0.474270000000     0.261330000000     0.136600000000     0.0313565  
C342     C      0.519420000000     0.228700000000     0.137190000000     0.0186064  
C343     C      0.475310000000     0.262130000000     0.103730000000     0.0338512  
C344     C      0.519140000000     0.227420000000     0.104190000000     0.0701651  
C345     C      0.604290000000     0.003200000000     0.270260000000     0.035353   
C346     C      0.603830000000     0.477340000000     0.220900000000     0.019283   
C347     C      0.637190000000     0.003380000000     0.269810000000     0.0385872  
C348     C      0.636820000000     0.475050000000     0.221640000000     0.0696175  
C349     C      0.886420000000     0.013790000000     0.265210000000     0.0349523  
C350     C      0.886900000000     0.482830000000     0.218920000000     0.0182156  
C351     C      0.853470000000     0.014970000000     0.264050000000     0.0378904  
C352     C      0.853910000000     0.481790000000     0.219110000000     0.0717063  
C353     C      0.980120000000     0.386050000000     0.268970000000     0.0306046  
C354     C      0.509730000000     0.386710000000     0.221800000000     0.0186513  
C355     C      0.979470000000     0.353100000000     0.267970000000     0.0329213  
C356     C      0.511200000000     0.353770000000     0.221960000000     0.0702658  
C357     C      0.512230000000     0.103820000000     0.265950000000     0.0314694  
C358     C      0.483340000000     0.103630000000     0.218330000000     0.0187582  
C359     C      0.512960000000     0.136690000000     0.265390000000     0.0339507  
C360     C      0.481840000000     0.136650000000     0.218980000000     0.0702382  
C361     C      0.935220000000     0.997160000000     0.743080000000     0.431605   
C362     C      0.555600000000     0.492710000000     0.744900000000     0.432623   
C363     C      0.997270000000     0.055210000000     0.742780000000     0.431426   
C364     C      0.994060000000     0.434910000000     0.745140000000     0.432383   
C365     C      0.496460000000     0.245310000000     0.685390000000     0.431666   
C366     C      0.495770000000     0.245380000000     0.805420000000     0.435314   
C367     C      0.995830000000     0.304990000000     0.745580000000     0.430834   
C368     C      0.996520000000     0.185070000000     0.744090000000     0.430314   
C369     C      0.805330000000     0.996520000000     0.743450000000     0.43226    
C370     C      0.685280000000     0.990230000000     0.745930000000     0.431282   
C371     C      0.744380000000     0.494880000000     0.685010000000     0.432352   
C372     C      0.746570000000     0.491720000000     0.805240000000     0.436945   
C373     C      0.745700000000     0.993460000000     0.935080000000     0.431372   
C374     C      0.745210000000     0.495770000000     0.555280000000     0.436741   
C375     C      0.748040000000     0.055090000000     0.994520000000     0.430425   
C376     C      0.742720000000     0.434770000000     0.996410000000     0.43011    
C377     C      0.555370000000     0.243320000000     0.495200000000     0.431737   
C378     C      0.935170000000     0.246790000000     0.995920000000     0.430467   
C379     C      0.496270000000     0.244650000000     0.555480000000     0.435799   
C380     C      0.494880000000     0.245590000000     0.935390000000     0.431006   
C381     C      0.749020000000     0.185040000000     0.995620000000     0.429075   
C382     C      0.741600000000     0.304830000000     0.996590000000     0.429731   
C383     C      0.685370000000     0.241530000000     0.495910000000     0.43455    
C384     C      0.805190000000     0.248370000000     0.496230000000     0.43579    
C385     C      0.886130000000     0.224970000000     0.511670000000     0.0307079  
C386     C      0.887140000000     0.271400000000     0.980910000000     0.0169504  
C387     C      0.853290000000     0.226470000000     0.512820000000     0.0338339  
C388     C      0.854090000000     0.271680000000     0.979990000000     0.0698567  
C389     C      0.604400000000     0.264730000000     0.511500000000     0.031161   
C390     C      0.603420000000     0.218940000000     0.479800000000     0.0180744  
C391     C      0.637230000000     0.263150000000     0.512740000000     0.0337489  
C392     C      0.636490000000     0.218640000000     0.478970000000     0.0695892  
C393     C      0.764900000000     0.385760000000     0.511540000000     0.0295033  
C394     C      0.717180000000     0.386690000000     0.982800000000     0.0168755  
C395     C      0.763630000000     0.352950000000     0.512670000000     0.0336826  
C396     C      0.717170000000     0.353600000000     0.981630000000     0.069655   
C397     C      0.726030000000     0.103940000000     0.510120000000     0.030629   
C398     C      0.773240000000     0.103280000000     0.480540000000     0.0184615  
C399     C      0.727250000000     0.136740000000     0.511450000000     0.0330607  
C400     C      0.773200000000     0.136390000000     0.479640000000     0.0704016  
C401     C      0.723390000000     0.008180000000     0.886000000000     0.034464   
C402     C      0.768630000000     0.475660000000     0.887200000000     0.0181689  
C403     C      0.724630000000     0.008600000000     0.853160000000     0.0374637  
C404     C      0.768460000000     0.473920000000     0.854190000000     0.0700836  
C405     C      0.729360000000     0.018520000000     0.636420000000     0.0334987  
C406     C      0.760290000000     0.472160000000     0.636660000000     0.0188327  
C407     C      0.728360000000     0.017540000000     0.603470000000     0.0384293  
C408     C      0.761700000000     0.472660000000     0.603750000000     0.0709281  
C409     C      0.979040000000     0.223280000000     0.886540000000     0.0300562  
C410     C      0.510800000000     0.269040000000     0.887160000000     0.0177356  
C411     C      0.978280000000     0.224280000000     0.853650000000     0.0322147  
C412     C      0.512010000000     0.268850000000     0.854170000000     0.0701414  
C413     C      0.474270000000     0.261330000000     0.636600000000     0.0312224  
C414     C      0.519420000000     0.228700000000     0.637190000000     0.0184691  
C415     C      0.475310000000     0.262130000000     0.603730000000     0.0336873  
C416     C      0.519140000000     0.227420000000     0.604190000000     0.0701874  
C417     C      0.604290000000     0.003200000000     0.770260000000     0.0353404  
C418     C      0.603830000000     0.477340000000     0.720900000000     0.0192362  
C419     C      0.637190000000     0.003380000000     0.769810000000     0.0385728  
C420     C      0.636820000000     0.475050000000     0.721640000000     0.0696191  
C421     C      0.886420000000     0.013790000000     0.765210000000     0.0349487  
C422     C      0.886900000000     0.482830000000     0.718920000000     0.0181678  
C423     C      0.853470000000     0.014970000000     0.764050000000     0.0378661  
C424     C      0.853910000000     0.481790000000     0.719110000000     0.071699   
C425     C      0.980120000000     0.386050000000     0.768970000000     0.0305808  
C426     C      0.509730000000     0.386710000000     0.721800000000     0.0186175  
C427     C      0.979470000000     0.353100000000     0.767970000000     0.0328968  
C428     C      0.511200000000     0.353770000000     0.721960000000     0.0702721  
C429     C      0.512230000000     0.103820000000     0.765950000000     0.0314578  
C430     C      0.483340000000     0.103630000000     0.718330000000     0.0187187  
C431     C      0.512960000000     0.136690000000     0.765400000000     0.0338522  
C432     C      0.481840000000     0.136650000000     0.718980000000     0.0702468  
C433     C      0.935220000000     0.497160000000     0.243080000000     0.432034   
C434     C      0.555600000000     0.992710000000     0.244900000000     0.431923   
C435     C      0.997270000000     0.555210000000     0.242770000000     0.432096   
C436     C      0.994060000000     0.934910000000     0.245130000000     0.431815   
C437     C      0.496460000000     0.745320000000     0.185400000000     0.431777   
C438     C      0.495770000000     0.745370000000     0.305420000000     0.43532    
C439     C      0.995830000000     0.804990000000     0.245580000000     0.430836   
C440     C      0.996520000000     0.685070000000     0.244090000000     0.430223   
C441     C      0.805330000000     0.496520000000     0.243450000000     0.437857   
C442     C      0.685280000000     0.490230000000     0.245930000000     0.436969   
C443     C      0.744380000000     0.994880000000     0.185010000000     0.426897   
C444     C      0.746570000000     0.991730000000     0.305240000000     0.431234   
C445     C      0.745700000000     0.493460000000     0.435080000000     0.432374   
C446     C      0.745210000000     0.995770000000     0.055280000000     0.435333   
C447     C      0.748040000000     0.555090000000     0.494520000000     0.431839   
C448     C      0.742720000000     0.934770000000     0.496410000000     0.430534   
C449     C      0.555370000000     0.743320000000     0.995200000000     0.431011   
C450     C      0.935170000000     0.746790000000     0.495920000000     0.431178   
C451     C      0.496270000000     0.744650000000     0.055480000000     0.434892   
C452     C      0.494880000000     0.745590000000     0.435400000000     0.431407   
C453     C      0.749020000000     0.685040000000     0.495620000000     0.434486   
C454     C      0.741600000000     0.804830000000     0.496590000000     0.435317   
C455     C      0.685370000000     0.741530000000     0.995910000000     0.428982   
C456     C      0.805190000000     0.748370000000     0.996230000000     0.430214   
C457     C      0.886130000000     0.724970000000     0.011670000000     0.0345531  
C458     C      0.887140000000     0.771400000000     0.480910000000     0.0176456  
C459     C      0.853290000000     0.726470000000     0.012820000000     0.037128   
C460     C      0.854090000000     0.771680000000     0.479990000000     0.0704483  
C461     C      0.604400000000     0.764730000000     0.011500000000     0.0349537  
C462     C      0.603420000000     0.718940000000     0.979800000000     0.0174053  
C463     C      0.637230000000     0.763150000000     0.012740000000     0.037084   
C464     C      0.636490000000     0.718640000000     0.978970000000     0.0688144  
C465     C      0.764900000000     0.885760000000     0.011540000000     0.033309   
C466     C      0.717180000000     0.886690000000     0.482800000000     0.0175524  
C467     C      0.763630000000     0.852950000000     0.012670000000     0.0369976  
C468     C      0.717170000000     0.853600000000     0.481630000000     0.0702439  
C469     C      0.726030000000     0.603940000000     0.010120000000     0.0343549  
C470     C      0.773240000000     0.603280000000     0.980540000000     0.017539   
C471     C      0.727250000000     0.636740000000     0.011450000000     0.0363063  
C472     C      0.773200000000     0.636390000000     0.979640000000     0.0697149  
C473     C      0.723390000000     0.508180000000     0.386000000000     0.0306374  
C474     C      0.768630000000     0.975660000000     0.387200000000     0.0174711  
C475     C      0.724630000000     0.508600000000     0.353160000000     0.0341821  
C476     C      0.768460000000     0.973920000000     0.354190000000     0.0694595  
C477     C      0.729360000000     0.518520000000     0.136420000000     0.0302346  
C478     C      0.760290000000     0.972160000000     0.136660000000     0.0181996  
C479     C      0.728360000000     0.517540000000     0.103470000000     0.0347027  
C480     C      0.761700000000     0.972660000000     0.103750000000     0.0705728  
C481     C      0.979040000000     0.723280000000     0.386540000000     0.0299707  
C482     C      0.510800000000     0.769040000000     0.387160000000     0.0177398  
C483     C      0.978280000000     0.724290000000     0.353650000000     0.0323418  
C484     C      0.512010000000     0.768850000000     0.354170000000     0.070114   
C485     C      0.474270000000     0.761330000000     0.136600000000     0.0313746  
C486     C      0.519420000000     0.728700000000     0.137190000000     0.0185465  
C487     C      0.475310000000     0.762130000000     0.103730000000     0.0337902  
C488     C      0.519140000000     0.727420000000     0.104190000000     0.0701359  
C489     C      0.604290000000     0.503200000000     0.270260000000     0.0314543  
C490     C      0.603830000000     0.977340000000     0.220900000000     0.0186267  
C491     C      0.637190000000     0.503380000000     0.269810000000     0.0352302  
C492     C      0.636820000000     0.975050000000     0.221640000000     0.0688338  
C493     C      0.886420000000     0.513790000000     0.265210000000     0.0310441  
C494     C      0.886900000000     0.982830000000     0.218920000000     0.0175327  
C495     C      0.853470000000     0.514970000000     0.264050000000     0.0345086  
C496     C      0.853910000000     0.981790000000     0.219110000000     0.071064   
C497     C      0.980120000000     0.886060000000     0.268970000000     0.030562   
C498     C      0.509730000000     0.886710000000     0.221800000000     0.0185815  
C499     C      0.979470000000     0.853100000000     0.267970000000     0.0328825  
C500     C      0.511200000000     0.853770000000     0.221960000000     0.0702527  
C501     C      0.512230000000     0.603820000000     0.265950000000     0.0312756  
C502     C      0.483340000000     0.603630000000     0.218330000000     0.0185413  
C503     C      0.512960000000     0.636690000000     0.265390000000     0.0337962  
C504     C      0.481840000000     0.636650000000     0.218980000000     0.0701276  
C505     C      0.935220000000     0.497160000000     0.743080000000     0.432281   
C506     C      0.555600000000     0.992710000000     0.744900000000     0.431912   
C507     C      0.997270000000     0.555210000000     0.742780000000     0.432085   
C508     C      0.994060000000     0.934910000000     0.745140000000     0.432051   
C509     C      0.496460000000     0.745320000000     0.685390000000     0.431671   
C510     C      0.495770000000     0.745370000000     0.805420000000     0.435322   
C511     C      0.995830000000     0.804990000000     0.745580000000     0.430829   
C512     C      0.996520000000     0.685070000000     0.744090000000     0.430273   
C513     C      0.805330000000     0.496520000000     0.743450000000     0.437857   
C514     C      0.685280000000     0.490230000000     0.745930000000     0.436976   
C515     C      0.744380000000     0.994880000000     0.685010000000     0.426856   
C516     C      0.746570000000     0.991730000000     0.805240000000     0.43123    
C517     C      0.745700000000     0.493460000000     0.935080000000     0.432088   
C518     C      0.745210000000     0.995770000000     0.555280000000     0.436028   
C519     C      0.748040000000     0.555090000000     0.994520000000     0.431109   
C520     C      0.742720000000     0.934770000000     0.996410000000     0.429795   
C521     C      0.555370000000     0.743320000000     0.495200000000     0.431747   
C522     C      0.935170000000     0.746790000000     0.995920000000     0.43047    
C523     C      0.496270000000     0.744650000000     0.555480000000     0.435546   
C524     C      0.494880000000     0.745590000000     0.935390000000     0.431007   
C525     C      0.749020000000     0.685040000000     0.995620000000     0.42892    
C526     C      0.741600000000     0.804830000000     0.996590000000     0.429731   
C527     C      0.685370000000     0.741530000000     0.495910000000     0.434556   
C528     C      0.805190000000     0.748370000000     0.496230000000     0.435796   
C529     C      0.886130000000     0.724970000000     0.511670000000     0.030672   
C530     C      0.887140000000     0.771400000000     0.980910000000     0.0169235  
C531     C      0.853290000000     0.726470000000     0.512820000000     0.0337772  
C532     C      0.854090000000     0.771680000000     0.979990000000     0.0698511  
C533     C      0.604400000000     0.764730000000     0.511500000000     0.0311383  
C534     C      0.603420000000     0.718940000000     0.479800000000     0.0180262  
C535     C      0.637230000000     0.763150000000     0.512740000000     0.0337246  
C536     C      0.636490000000     0.718640000000     0.478970000000     0.0695812  
C537     C      0.764900000000     0.885760000000     0.511540000000     0.0294574  
C538     C      0.717180000000     0.886690000000     0.982800000000     0.0168106  
C539     C      0.763630000000     0.852950000000     0.512670000000     0.0336696  
C540     C      0.717170000000     0.853600000000     0.981630000000     0.0696428  
C541     C      0.726030000000     0.603940000000     0.510120000000     0.0304553  
C542     C      0.773240000000     0.603280000000     0.480540000000     0.0182587  
C543     C      0.727250000000     0.636740000000     0.511450000000     0.0329231  
C544     C      0.773200000000     0.636390000000     0.479640000000     0.0703123  
C545     C      0.723390000000     0.508180000000     0.886000000000     0.0305912  
C546     C      0.768630000000     0.975660000000     0.887200000000     0.0174194  
C547     C      0.724630000000     0.508600000000     0.853160000000     0.0341547  
C548     C      0.768460000000     0.973920000000     0.854190000000     0.0694496  
C549     C      0.729360000000     0.518520000000     0.636420000000     0.0300875  
C550     C      0.760290000000     0.972160000000     0.636660000000     0.0180396  
C551     C      0.728360000000     0.517540000000     0.603470000000     0.0345135  
C552     C      0.761700000000     0.972660000000     0.603750000000     0.0705504  
C553     C      0.979040000000     0.723280000000     0.886540000000     0.0299361  
C554     C      0.510800000000     0.769040000000     0.887160000000     0.0177104  
C555     C      0.978280000000     0.724290000000     0.853650000000     0.0323078  
C556     C      0.512010000000     0.768850000000     0.854170000000     0.0700999  
C557     C      0.474270000000     0.761330000000     0.636600000000     0.0312403  
C558     C      0.519420000000     0.728700000000     0.637190000000     0.0184086  
C559     C      0.475310000000     0.762130000000     0.603730000000     0.0336258  
C560     C      0.519140000000     0.727420000000     0.604190000000     0.0701581  
C561     C      0.604290000000     0.503200000000     0.770260000000     0.0314316  
C562     C      0.603830000000     0.977340000000     0.720900000000     0.0185787  
C563     C      0.637190000000     0.503380000000     0.769810000000     0.0352069  
C564     C      0.636820000000     0.975050000000     0.721640000000     0.0688339  
C565     C      0.886420000000     0.513790000000     0.765210000000     0.0310307  
C566     C      0.886900000000     0.982830000000     0.718920000000     0.0174837  
C567     C      0.853470000000     0.514970000000     0.764050000000     0.0344757  
C568     C      0.853910000000     0.981790000000     0.719110000000     0.0710554  
C569     C      0.980120000000     0.886060000000     0.768970000000     0.0305381  
C570     C      0.509730000000     0.886710000000     0.721800000000     0.0185476  
C571     C      0.979470000000     0.853100000000     0.767970000000     0.032858   
C572     C      0.511200000000     0.853770000000     0.721960000000     0.070259   
C573     C      0.512230000000     0.603820000000     0.765950000000     0.0312635  
C574     C      0.483340000000     0.603630000000     0.718330000000     0.0185011  
C575     C      0.512960000000     0.636690000000     0.765400000000     0.0336972  
C576     C      0.481840000000     0.636650000000     0.718980000000     0.0701359  
H1       H      0.340750000000     0.208290000000     0.025800000000     0.0366916  
H2       H      0.397870000000     0.206080000000     0.024340000000     0.0391507  
H3       H      0.399960000000     0.289760000000     0.468490000000     0.043524   
H4       H      0.329980000000     0.295250000000     0.429580000000     0.0436853  
H5       H      0.149750000000     0.281020000000     0.026160000000     0.036682   
H6       H      0.092650000000     0.283360000000     0.024540000000     0.0397771  
H7       H      0.090610000000     0.200850000000     0.966990000000     0.0435308  
H8       H      0.159650000000     0.162580000000     0.479070000000     0.037094   
H9       H      0.282400000000     0.340460000000     0.024850000000     0.0353934  
H10      H      0.284360000000     0.397500000000     0.023310000000     0.0377185  
H11      H      0.198280000000     0.399480000000     0.471180000000     0.0431435  
H12      H      0.192220000000     0.329550000000     0.431890000000     0.0442544  
H13      H      0.208690000000     0.149070000000     0.024090000000     0.0339851  
H14      H      0.206910000000     0.092080000000     0.022320000000     0.0378605  
H15      H      0.291960000000     0.090570000000     0.968550000000     0.0431949  
H16      H      0.297370000000     0.160870000000     0.929730000000     0.0442683  
H17      H      0.207010000000     0.022220000000     0.340500000000     0.033434   
H18      H      0.205180000000     0.021880000000     0.397650000000     0.0381597  
H19      H      0.286610000000     0.462780000000     0.400120000000     0.0430167  
H20      H      0.289090000000     0.421880000000     0.330910000000     0.0428468  
H21      H      0.215180000000     0.035620000000     0.091030000000     0.0328141  
H22      H      0.216470000000     0.037000000000     0.148550000000     0.0369078  
H23      H      0.272630000000     0.453510000000     0.149130000000     0.042773   
H24      H      0.262110000000     0.417130000000     0.079600000000     0.0383565  
H25      H      0.464990000000     0.206250000000     0.341240000000     0.0350999  
H26      H      0.465840000000     0.204860000000     0.398430000000     0.0383296  
H27      H      0.023480000000     0.287360000000     0.399790000000     0.0441134  
H28      H      0.062990000000     0.291580000000     0.330350000000     0.0437542  
H29      H      0.957590000000     0.275840000000     0.091330000000     0.0358752  
H30      H      0.956140000000     0.274910000000     0.148530000000     0.0384054  
H31      H      0.037460000000     0.215630000000     0.149840000000     0.0437633  
H32      H      0.040300000000     0.175810000000     0.080370000000     0.045023   
H33      H      0.149680000000     0.014470000000     0.289220000000     0.0314905  
H34      H      0.092330000000     0.014450000000     0.289890000000     0.0378816  
H35      H      0.091180000000     0.467250000000     0.201050000000     0.042359   
H36      H      0.162680000000     0.479660000000     0.166990000000     0.0397453  
H37      H      0.341000000000     0.027960000000     0.282260000000     0.0345237  
H38      H      0.398440000000     0.026480000000     0.283900000000     0.0385235  
H39      H      0.399480000000     0.470250000000     0.200490000000     0.0439535  
H40      H      0.329760000000     0.430890000000     0.196560000000     0.0425841  
H41      H      0.467080000000     0.340550000000     0.286530000000     0.0350627  
H42      H      0.467730000000     0.397980000000     0.287920000000     0.0377844  
H43      H      0.021550000000     0.399360000000     0.202920000000     0.0436875  
H44      H      0.061450000000     0.330200000000     0.197430000000     0.0435433  
H45      H      0.025150000000     0.148930000000     0.284300000000     0.0349762  
H46      H      0.024310000000     0.091730000000     0.285000000000     0.0383327  
H47      H      0.971800000000     0.091120000000     0.199190000000     0.0437134  
H48      H      0.931950000000     0.160660000000     0.194190000000     0.0443772  
H49      H      0.340750000000     0.208290000000     0.525800000000     0.0363037  
H50      H      0.397870000000     0.206080000000     0.524340000000     0.0386493  
H51      H      0.399960000000     0.289760000000     0.968490000000     0.0433251  
H52      H      0.329980000000     0.295250000000     0.929580000000     0.0438198  
H53      H      0.149750000000     0.281020000000     0.526160000000     0.0363117  
H54      H      0.092650000000     0.283360000000     0.524540000000     0.0392862  
H55      H      0.090610000000     0.200850000000     0.466990000000     0.0437563  
H56      H      0.159650000000     0.162580000000     0.979070000000     0.0360402  
H57      H      0.282400000000     0.340460000000     0.524850000000     0.0349934  
H58      H      0.284360000000     0.397500000000     0.523310000000     0.0373011  
H59      H      0.198280000000     0.399480000000     0.971180000000     0.042929   
H60      H      0.192220000000     0.329550000000     0.931890000000     0.0444032  
H61      H      0.208690000000     0.149070000000     0.524090000000     0.0335447  
H62      H      0.206910000000     0.092080000000     0.522320000000     0.0373442  
H63      H      0.291960000000     0.090570000000     0.468550000000     0.043402   
H64      H      0.297370000000     0.160870000000     0.429730000000     0.044134   
H65      H      0.207010000000     0.022220000000     0.840500000000     0.0333904  
H66      H      0.205180000000     0.021880000000     0.897650000000     0.0380085  
H67      H      0.286610000000     0.462780000000     0.900120000000     0.0428576  
H68      H      0.289090000000     0.421880000000     0.830910000000     0.042821   
H69      H      0.215180000000     0.035620000000     0.591030000000     0.0323199  
H70      H      0.216470000000     0.037000000000     0.648550000000     0.0367764  
H71      H      0.272630000000     0.453510000000     0.649130000000     0.0427365  
H72      H      0.262110000000     0.417130000000     0.579600000000     0.0380223  
H73      H      0.464990000000     0.206250000000     0.841240000000     0.0350517  
H74      H      0.465840000000     0.204860000000     0.898430000000     0.0381641  
H75      H      0.023480000000     0.287360000000     0.899800000000     0.04396    
H76      H      0.062990000000     0.291580000000     0.830350000000     0.0437273  
H77      H      0.957590000000     0.275840000000     0.591330000000     0.0353262  
H78      H      0.956140000000     0.274910000000     0.648530000000     0.0382538  
H79      H      0.037460000000     0.215630000000     0.649840000000     0.0437098  
H80      H      0.040300000000     0.175810000000     0.580370000000     0.044496   
H81      H      0.149680000000     0.014470000000     0.789220000000     0.0314534  
H82      H      0.092330000000     0.014450000000     0.789890000000     0.037814   
H83      H      0.091180000000     0.467250000000     0.701050000000     0.0422211  
H84      H      0.162680000000     0.479660000000     0.666990000000     0.0395796  
H85      H      0.341000000000     0.027960000000     0.782260000000     0.0344915  
H86      H      0.398440000000     0.026480000000     0.783900000000     0.0384542  
H87      H      0.399480000000     0.470250000000     0.700490000000     0.0438096  
H88      H      0.329760000000     0.430890000000     0.696560000000     0.0425487  
H89      H      0.467080000000     0.340550000000     0.786530000000     0.0350303  
H90      H      0.467730000000     0.397980000000     0.787920000000     0.0377125  
H91      H      0.021550000000     0.399360000000     0.702920000000     0.0435538  
H92      H      0.061450000000     0.330200000000     0.697430000000     0.0434924  
H93      H      0.025150000000     0.148930000000     0.784300000000     0.0349544  
H94      H      0.024310000000     0.091730000000     0.784990000000     0.0382676  
H95      H      0.971800000000     0.091120000000     0.699190000000     0.0435686  
H96      H      0.931950000000     0.160660000000     0.694190000000     0.0443062  
H97      H      0.340750000000     0.708300000000     0.025800000000     0.0365914  
H98      H      0.397870000000     0.706080000000     0.024340000000     0.0389903  
H99      H      0.399960000000     0.789760000000     0.468490000000     0.0434608  
H100     H      0.329980000000     0.795250000000     0.429580000000     0.0436568  
H101     H      0.149750000000     0.781020000000     0.026160000000     0.0366512  
H102     H      0.092650000000     0.783360000000     0.024540000000     0.0397198  
H103     H      0.090610000000     0.700850000000     0.966990000000     0.0433944  
H104     H      0.159650000000     0.662580000000     0.479070000000     0.0369144  
H105     H      0.282400000000     0.840460000000     0.024850000000     0.0353662  
H106     H      0.284360000000     0.897500000000     0.023310000000     0.0376404  
H107     H      0.198280000000     0.899480000000     0.471180000000     0.0429402  
H108     H      0.192220000000     0.829550000000     0.431890000000     0.044197   
H109     H      0.208690000000     0.649070000000     0.024090000000     0.0338558  
H110     H      0.206910000000     0.592080000000     0.022320000000     0.0373909  
H111     H      0.291960000000     0.590570000000     0.968550000000     0.0426596  
H112     H      0.297370000000     0.660870000000     0.929730000000     0.0441558  
H113     H      0.207010000000     0.522220000000     0.340500000000     0.0333076  
H114     H      0.205180000000     0.521880000000     0.397650000000     0.0377402  
H115     H      0.286610000000     0.962790000000     0.400120000000     0.0428481  
H116     H      0.289090000000     0.921880000000     0.330910000000     0.042934   
H117     H      0.215180000000     0.535630000000     0.091030000000     0.0325174  
H118     H      0.216470000000     0.537000000000     0.148550000000     0.03675    
H119     H      0.272630000000     0.953510000000     0.149130000000     0.0428763  
H120     H      0.262110000000     0.917130000000     0.079600000000     0.03839    
H121     H      0.464990000000     0.706250000000     0.341240000000     0.0349424  
H122     H      0.465840000000     0.704860000000     0.398430000000     0.0381925  
H123     H      0.023480000000     0.787360000000     0.399790000000     0.0440378  
H124     H      0.062990000000     0.791580000000     0.330350000000     0.0437074  
H125     H      0.957590000000     0.775840000000     0.091330000000     0.0358391  
H126     H      0.956140000000     0.774910000000     0.148530000000     0.0383638  
H127     H      0.037460000000     0.715630000000     0.149840000000     0.0436986  
H128     H      0.040300000000     0.675810000000     0.080370000000     0.0447543  
H129     H      0.149680000000     0.514470000000     0.289220000000     0.0312187  
H130     H      0.092330000000     0.514450000000     0.289890000000     0.0373922  
H131     H      0.091180000000     0.967250000000     0.201050000000     0.0421387  
H132     H      0.162680000000     0.979660000000     0.166990000000     0.0388008  
H133     H      0.341000000000     0.527960000000     0.282260000000     0.0341639  
H134     H      0.398440000000     0.526480000000     0.283900000000     0.0380368  
H135     H      0.399480000000     0.970250000000     0.200490000000     0.0437681  
H136     H      0.329760000000     0.930890000000     0.196560000000     0.0426941  
H137     H      0.467080000000     0.840550000000     0.286530000000     0.0350103  
H138     H      0.467730000000     0.897980000000     0.287920000000     0.0375843  
H139     H      0.021550000000     0.899350000000     0.202920000000     0.0435759  
H140     H      0.061450000000     0.830200000000     0.197430000000     0.0435079  
H141     H      0.025150000000     0.648930000000     0.284300000000     0.0348364  
H142     H      0.024310000000     0.591730000000     0.285000000000     0.0378787  
H143     H      0.971800000000     0.591130000000     0.199190000000     0.043142   
H144     H      0.931950000000     0.660650000000     0.194190000000     0.0442254  
H145     H      0.340750000000     0.708300000000     0.525800000000     0.0362017  
H146     H      0.397870000000     0.706080000000     0.524340000000     0.038486   
H147     H      0.399960000000     0.789760000000     0.968490000000     0.0432621  
H148     H      0.329980000000     0.795250000000     0.929580000000     0.0437913  
H149     H      0.149750000000     0.781020000000     0.526160000000     0.0362806  
H150     H      0.092650000000     0.783360000000     0.524540000000     0.0392283  
H151     H      0.090610000000     0.700850000000     0.466990000000     0.0436205  
H152     H      0.159650000000     0.662580000000     0.979070000000     0.0358573  
H153     H      0.282400000000     0.840460000000     0.524850000000     0.0349655  
H154     H      0.284360000000     0.897500000000     0.523310000000     0.0372223  
H155     H      0.198280000000     0.899480000000     0.971180000000     0.0427261  
H156     H      0.192220000000     0.829550000000     0.931890000000     0.0443459  
H157     H      0.208690000000     0.649070000000     0.524090000000     0.0334136  
H158     H      0.206910000000     0.592080000000     0.522320000000     0.0368702  
H159     H      0.291960000000     0.590570000000     0.468550000000     0.0428672  
H160     H      0.297370000000     0.660870000000     0.429730000000     0.0440215  
H161     H      0.207010000000     0.522220000000     0.840500000000     0.0332637  
H162     H      0.205180000000     0.521880000000     0.897650000000     0.0375881  
H163     H      0.286610000000     0.962790000000     0.900120000000     0.0426893  
H164     H      0.289090000000     0.921880000000     0.830910000000     0.0429082  
H165     H      0.215180000000     0.535630000000     0.591030000000     0.0320198  
H166     H      0.216470000000     0.537000000000     0.648550000000     0.0366173  
H167     H      0.272630000000     0.953510000000     0.649130000000     0.0428401  
H168     H      0.262110000000     0.917130000000     0.579600000000     0.0380556  
H169     H      0.464990000000     0.706250000000     0.841240000000     0.0348938  
H170     H      0.465840000000     0.704860000000     0.898430000000     0.0380265  
H171     H      0.023480000000     0.787360000000     0.899800000000     0.0438844  
H172     H      0.062990000000     0.791580000000     0.830350000000     0.0436804  
H173     H      0.957590000000     0.775840000000     0.591330000000     0.0352889  
H174     H      0.956140000000     0.774910000000     0.648530000000     0.0382119  
H175     H      0.037460000000     0.715630000000     0.649840000000     0.0436448  
H176     H      0.040300000000     0.675810000000     0.580370000000     0.0442241  
H177     H      0.149680000000     0.514470000000     0.789220000000     0.0311812  
H178     H      0.092330000000     0.514450000000     0.789890000000     0.0373237  
H179     H      0.091180000000     0.967250000000     0.701050000000     0.0420002  
H180     H      0.162680000000     0.979660000000     0.666990000000     0.0386324  
H181     H      0.341000000000     0.527960000000     0.782260000000     0.0341313  
H182     H      0.398440000000     0.526480000000     0.783900000000     0.0379668  
H183     H      0.399480000000     0.970250000000     0.700490000000     0.0436236  
H184     H      0.329760000000     0.930890000000     0.696560000000     0.0426589  
H185     H      0.467080000000     0.840550000000     0.786530000000     0.0349779  
H186     H      0.467730000000     0.897980000000     0.787920000000     0.0375124  
H187     H      0.021550000000     0.899350000000     0.702920000000     0.0434418  
H188     H      0.061450000000     0.830200000000     0.697430000000     0.0434568  
H189     H      0.025150000000     0.648930000000     0.784300000000     0.0348144  
H190     H      0.024310000000     0.591730000000     0.784990000000     0.0378126  
H191     H      0.971800000000     0.591130000000     0.699190000000     0.0429947  
H192     H      0.931950000000     0.660650000000     0.694190000000     0.0441536  
H193     H      0.840750000000     0.208290000000     0.025800000000     0.0366463  
H194     H      0.897870000000     0.206080000000     0.024340000000     0.0389989  
H195     H      0.899960000000     0.289760000000     0.468490000000     0.0433355  
H196     H      0.829980000000     0.295250000000     0.429580000000     0.0436422  
H197     H      0.649750000000     0.281020000000     0.026160000000     0.0365901  
H198     H      0.592650000000     0.283360000000     0.024540000000     0.039321   
H199     H      0.590610000000     0.200850000000     0.966990000000     0.0430229  
H200     H      0.659650000000     0.162580000000     0.479070000000     0.0369652  
H201     H      0.782400000000     0.340460000000     0.024850000000     0.0353575  
H202     H      0.784360000000     0.397500000000     0.023310000000     0.0376555  
H203     H      0.698280000000     0.399480000000     0.471180000000     0.0429981  
H204     H      0.692220000000     0.329550000000     0.431890000000     0.0442008  
H205     H      0.708690000000     0.149070000000     0.024090000000     0.033912   
H206     H      0.706910000000     0.092080000000     0.022320000000     0.037751   
H207     H      0.791960000000     0.090570000000     0.968550000000     0.0430951  
H208     H      0.797370000000     0.160870000000     0.929730000000     0.0442372  
H209     H      0.707010000000     0.022220000000     0.340500000000     0.0333417  
H210     H      0.705180000000     0.021880000000     0.397650000000     0.0380234  
H211     H      0.786610000000     0.462780000000     0.400120000000     0.0429527  
H212     H      0.789090000000     0.421880000000     0.330910000000     0.0428188  
H213     H      0.715180000000     0.035620000000     0.091030000000     0.0327119  
H214     H      0.716470000000     0.037000000000     0.148550000000     0.0368239  
H215     H      0.772630000000     0.453510000000     0.149130000000     0.0427375  
H216     H      0.762100000000     0.417130000000     0.079600000000     0.0383284  
H217     H      0.964990000000     0.206250000000     0.341240000000     0.0348573  
H218     H      0.965840000000     0.204860000000     0.398430000000     0.0380388  
H219     H      0.523480000000     0.287360000000     0.399790000000     0.0437855  
H220     H      0.562990000000     0.291580000000     0.330350000000     0.0438167  
H221     H      0.457590000000     0.275840000000     0.091330000000     0.0360761  
H222     H      0.456140000000     0.274910000000     0.148530000000     0.0385494  
H223     H      0.537460000000     0.215630000000     0.149840000000     0.0437857  
H224     H      0.540300000000     0.175810000000     0.080370000000     0.0439952  
H225     H      0.649680000000     0.014470000000     0.289220000000     0.031354   
H226     H      0.592330000000     0.014450000000     0.289890000000     0.0373947  
H227     H      0.591180000000     0.467250000000     0.201050000000     0.0419114  
H228     H      0.662680000000     0.479660000000     0.166990000000     0.0396116  
H229     H      0.841000000000     0.027960000000     0.282260000000     0.0344635  
H230     H      0.898440000000     0.026480000000     0.283900000000     0.0383539  
H231     H      0.899470000000     0.470250000000     0.200490000000     0.043776   
H232     H      0.829760000000     0.430890000000     0.196560000000     0.0425398  
H233     H      0.967090000000     0.340550000000     0.286530000000     0.0347474  
H234     H      0.967730000000     0.397980000000     0.287920000000     0.0374423  
H235     H      0.521550000000     0.399360000000     0.202920000000     0.043368   
H236     H      0.561450000000     0.330200000000     0.197430000000     0.0436247  
H237     H      0.525150000000     0.148930000000     0.284300000000     0.0346129  
H238     H      0.524310000000     0.091730000000     0.285000000000     0.0378524  
H239     H      0.471800000000     0.091120000000     0.199190000000     0.0439413  
H240     H      0.431940000000     0.160660000000     0.194190000000     0.0442455  
H241     H      0.840750000000     0.208290000000     0.525800000000     0.0362575  
H242     H      0.897870000000     0.206080000000     0.524340000000     0.0384964  
H243     H      0.899960000000     0.289760000000     0.968490000000     0.0431369  
H244     H      0.829980000000     0.295250000000     0.929580000000     0.0437768  
H245     H      0.649750000000     0.281020000000     0.526160000000     0.0362166  
H246     H      0.592650000000     0.283360000000     0.524540000000     0.0388259  
H247     H      0.590610000000     0.200850000000     0.466990000000     0.0432495  
H248     H      0.659650000000     0.162580000000     0.979070000000     0.0359085  
H249     H      0.782400000000     0.340460000000     0.524850000000     0.0349571  
H250     H      0.784360000000     0.397500000000     0.523310000000     0.0372374  
H251     H      0.698280000000     0.399480000000     0.971180000000     0.042783   
H252     H      0.692220000000     0.329550000000     0.931890000000     0.0443499  
H253     H      0.708690000000     0.149070000000     0.524090000000     0.0334694  
H254     H      0.706910000000     0.092080000000     0.522320000000     0.0372316  
H255     H      0.791960000000     0.090570000000     0.468550000000     0.043302   
H256     H      0.797370000000     0.160870000000     0.429730000000     0.0441029  
H257     H      0.707010000000     0.022220000000     0.840500000000     0.0332979  
H258     H      0.705180000000     0.021880000000     0.897650000000     0.0378717  
H259     H      0.786610000000     0.462780000000     0.900120000000     0.0427936  
H260     H      0.789090000000     0.421880000000     0.830910000000     0.0427928  
H261     H      0.715180000000     0.035620000000     0.591030000000     0.0322158  
H262     H      0.716470000000     0.037000000000     0.648550000000     0.0366917  
H263     H      0.772630000000     0.453510000000     0.649130000000     0.0427008  
H264     H      0.762100000000     0.417130000000     0.579600000000     0.037993   
H265     H      0.964990000000     0.206250000000     0.841240000000     0.0348089  
H266     H      0.965840000000     0.204860000000     0.898430000000     0.0378736  
H267     H      0.523480000000     0.287360000000     0.899800000000     0.0436303  
H268     H      0.562990000000     0.291580000000     0.830350000000     0.04379    
H269     H      0.457590000000     0.275840000000     0.591330000000     0.035528   
H270     H      0.456140000000     0.274910000000     0.648530000000     0.0383982  
H271     H      0.537460000000     0.215630000000     0.649840000000     0.0437323  
H272     H      0.540300000000     0.175810000000     0.580370000000     0.0434611  
H273     H      0.649680000000     0.014470000000     0.789220000000     0.0313165  
H274     H      0.592330000000     0.014450000000     0.789890000000     0.0373259  
H275     H      0.591180000000     0.467250000000     0.701050000000     0.0417715  
H276     H      0.662680000000     0.479660000000     0.666990000000     0.0394447  
H277     H      0.841000000000     0.027960000000     0.782260000000     0.0344313  
H278     H      0.898440000000     0.026480000000     0.783900000000     0.0382846  
H279     H      0.899470000000     0.470250000000     0.700490000000     0.0436313  
H280     H      0.829760000000     0.430890000000     0.696560000000     0.0425043  
H281     H      0.967090000000     0.340550000000     0.786530000000     0.034715   
H282     H      0.967730000000     0.397980000000     0.787920000000     0.0373704  
H283     H      0.521550000000     0.399360000000     0.702920000000     0.0432322  
H284     H      0.561450000000     0.330200000000     0.697430000000     0.043574   
H285     H      0.525150000000     0.148930000000     0.784300000000     0.0345907  
H286     H      0.524310000000     0.091730000000     0.784990000000     0.0377872  
H287     H      0.471800000000     0.091120000000     0.699190000000     0.0437973  
H288     H      0.431940000000     0.160660000000     0.694190000000     0.0441741  
H289     H      0.840750000000     0.708300000000     0.025800000000     0.0365458  
H290     H      0.897870000000     0.706080000000     0.024340000000     0.0388379  
H291     H      0.899960000000     0.789760000000     0.468490000000     0.0432723  
H292     H      0.829980000000     0.795250000000     0.429580000000     0.0436136  
H293     H      0.649750000000     0.781020000000     0.026160000000     0.036559   
H294     H      0.592650000000     0.783360000000     0.024540000000     0.0392626  
H295     H      0.590610000000     0.700850000000     0.966990000000     0.0428842  
H296     H      0.659650000000     0.662580000000     0.479070000000     0.0367843  
H297     H      0.782400000000     0.840460000000     0.024850000000     0.0353304  
H298     H      0.784360000000     0.897500000000     0.023310000000     0.0375775  
H299     H      0.698280000000     0.899480000000     0.471180000000     0.042794   
H300     H      0.692220000000     0.829550000000     0.431890000000     0.0441432  
H301     H      0.708690000000     0.649070000000     0.024090000000     0.0337821  
H302     H      0.706910000000     0.592080000000     0.022320000000     0.0372794  
H303     H      0.791960000000     0.590570000000     0.968550000000     0.0425585  
H304     H      0.797370000000     0.660870000000     0.929730000000     0.0441244  
H305     H      0.707010000000     0.522220000000     0.340500000000     0.0332141  
H306     H      0.705180000000     0.521880000000     0.397650000000     0.0376015  
H307     H      0.786610000000     0.962790000000     0.400120000000     0.0427843  
H308     H      0.789090000000     0.921880000000     0.330910000000     0.0429059  
H309     H      0.715180000000     0.535630000000     0.091030000000     0.0324135  
H310     H      0.716470000000     0.537000000000     0.148550000000     0.0366648  
H311     H      0.772630000000     0.953510000000     0.149130000000     0.0428409  
H312     H      0.762100000000     0.917130000000     0.079600000000     0.0383617  
H313     H      0.964990000000     0.706250000000     0.341240000000     0.0346986  
H314     H      0.965840000000     0.704860000000     0.398430000000     0.0379009  
H315     H      0.523480000000     0.787360000000     0.399790000000     0.0437093  
H316     H      0.562990000000     0.791580000000     0.330350000000     0.0437699  
H317     H      0.457590000000     0.775840000000     0.091330000000     0.0360399  
H318     H      0.456140000000     0.774910000000     0.148530000000     0.0385078  
H319     H      0.537460000000     0.715630000000     0.149840000000     0.0437201  
H320     H      0.540300000000     0.675810000000     0.080370000000     0.0437212  
H321     H      0.649680000000     0.514470000000     0.289220000000     0.0310804  
H322     H      0.592330000000     0.514450000000     0.289890000000     0.0369008  
H323     H      0.591180000000     0.967250000000     0.201050000000     0.0416904  
H324     H      0.662680000000     0.979660000000     0.166990000000     0.0386648  
H325     H      0.841000000000     0.527960000000     0.282260000000     0.0341027  
H326     H      0.898440000000     0.526480000000     0.283900000000     0.037866   
H327     H      0.899470000000     0.970250000000     0.200490000000     0.0435909  
H328     H      0.829760000000     0.930890000000     0.196560000000     0.0426499  
H329     H      0.967090000000     0.840550000000     0.286530000000     0.0346948  
H330     H      0.967730000000     0.897980000000     0.287920000000     0.0372423  
H331     H      0.521550000000     0.899350000000     0.202920000000     0.0432568  
H332     H      0.561450000000     0.830200000000     0.197430000000     0.0435895  
H333     H      0.525150000000     0.648930000000     0.284300000000     0.0344711  
H334     H      0.524310000000     0.591730000000     0.285000000000     0.0373941  
H335     H      0.471800000000     0.591130000000     0.199190000000     0.0433707  
H336     H      0.431940000000     0.660650000000     0.194190000000     0.0440935  
H337     H      0.840750000000     0.708300000000     0.525800000000     0.0361553  
H338     H      0.897870000000     0.706080000000     0.524340000000     0.0383325  
H339     H      0.899960000000     0.789760000000     0.968490000000     0.0430739  
H340     H      0.829980000000     0.795250000000     0.929580000000     0.0437482  
H341     H      0.649750000000     0.781020000000     0.526160000000     0.0361852  
H342     H      0.592650000000     0.783360000000     0.524540000000     0.0387669  
H343     H      0.590610000000     0.700850000000     0.466990000000     0.0431114  
H344     H      0.659650000000     0.662580000000     0.979070000000     0.0357244  
H345     H      0.782400000000     0.840460000000     0.524850000000     0.0349292  
H346     H      0.784360000000     0.897500000000     0.523310000000     0.0371588  
H347     H      0.698280000000     0.899480000000     0.971180000000     0.0425793  
H348     H      0.692220000000     0.829550000000     0.931890000000     0.0442923  
H349     H      0.708690000000     0.649070000000     0.524090000000     0.0333375  
H350     H      0.706910000000     0.592080000000     0.522320000000     0.0367555  
H351     H      0.791960000000     0.590570000000     0.468550000000     0.0427659  
H352     H      0.797370000000     0.660870000000     0.429730000000     0.0439901  
H353     H      0.707010000000     0.522220000000     0.840500000000     0.0331699  
H354     H      0.705180000000     0.521880000000     0.897650000000     0.0374489  
H355     H      0.786610000000     0.962790000000     0.900120000000     0.0426256  
H356     H      0.789090000000     0.921880000000     0.830910000000     0.04288    
H357     H      0.715180000000     0.535630000000     0.591030000000     0.031914   
H358     H      0.716470000000     0.537000000000     0.648550000000     0.0365313  
H359     H      0.772630000000     0.953510000000     0.649130000000     0.0428046  
H360     H      0.762100000000     0.917130000000     0.579600000000     0.038026   
H361     H      0.964990000000     0.706250000000     0.841240000000     0.0346499  
H362     H      0.965840000000     0.704860000000     0.898430000000     0.0377351  
H363     H      0.523480000000     0.787360000000     0.899800000000     0.0435542  
H364     H      0.562990000000     0.791580000000     0.830350000000     0.0437431  
H365     H      0.457590000000     0.775840000000     0.591330000000     0.0354907  
H366     H      0.456140000000     0.774910000000     0.648530000000     0.0383562  
H367     H      0.537460000000     0.715630000000     0.649840000000     0.0436663  
H368     H      0.540300000000     0.675810000000     0.580370000000     0.043184   
H369     H      0.649680000000     0.514470000000     0.789220000000     0.0310426  
H370     H      0.592330000000     0.514450000000     0.789890000000     0.0368311  
H371     H      0.591180000000     0.967250000000     0.701050000000     0.0415498  
H372     H      0.662680000000     0.979660000000     0.666990000000     0.0384952  
H373     H      0.841000000000     0.527960000000     0.782260000000     0.0340701  
H374     H      0.898440000000     0.526480000000     0.783900000000     0.0377959  
H375     H      0.899470000000     0.970250000000     0.700490000000     0.0434458  
H376     H      0.829760000000     0.930890000000     0.696560000000     0.0426145  
H377     H      0.967090000000     0.840550000000     0.786530000000     0.0346623  
H378     H      0.967730000000     0.897980000000     0.787920000000     0.0371704  
H379     H      0.521550000000     0.899350000000     0.702920000000     0.0431206  
H380     H      0.561450000000     0.830200000000     0.697430000000     0.0435387  
H381     H      0.525150000000     0.648930000000     0.784300000000     0.0344485  
H382     H      0.524310000000     0.591730000000     0.784990000000     0.037328   
H383     H      0.471800000000     0.591130000000     0.699190000000     0.0432242  
H384     H      0.431940000000     0.660650000000     0.694190000000     0.0440215  
N1       N      0.402930000000     0.247690000000     0.996120000000    -0.180388   
N2       N      0.337360000000     0.249130000000     0.996270000000    -0.188445   
N3       N      0.087620000000     0.242370000000     0.995410000000    -0.179964   
N4       N      0.153190000000     0.240820000000     0.995780000000    -0.188078   
N5       N      0.241480000000     0.402540000000     0.496990000000    -0.178109   
N6       N      0.240510000000     0.336970000000     0.496880000000    -0.186884   
N7       N      0.249210000000     0.087320000000     0.495030000000    -0.177721   
N8       N      0.250100000000     0.152890000000     0.495430000000    -0.186763   
N9       N      0.245850000000     0.992360000000     0.402880000000    -0.180584   
N10      N      0.246610000000     0.491000000000     0.337370000000    -0.187254   
N11      N      0.244750000000     0.495400000000     0.152810000000    -0.178358   
N12      N      0.245210000000     0.495230000000     0.087360000000    -0.186864   
N13      N      0.994930000000     0.245910000000     0.403150000000    -0.180255   
N14      N      0.995500000000     0.246340000000     0.337580000000    -0.188183   
N15      N      0.996660000000     0.245080000000     0.153180000000    -0.179512   
N16      N      0.997050000000     0.244520000000     0.087640000000    -0.188586   
N17      N      0.087790000000     0.991030000000     0.245380000000    -0.180168   
N18      N      0.153230000000     0.988830000000     0.245940000000    -0.188834   
N19      N      0.402970000000     0.997970000000     0.242450000000    -0.180317   
N20      N      0.337400000000     0.998040000000     0.241820000000    -0.188715   
N21      N      0.494660000000     0.402680000000     0.245480000000    -0.178308   
N22      N      0.495650000000     0.337140000000     0.245040000000    -0.186896   
N23      N      0.497730000000     0.087440000000     0.242240000000    -0.177974   
N24      N      0.496900000000     0.152960000000     0.242670000000    -0.186938   
N25      N      0.402930000000     0.247690000000     0.496120000000    -0.178124   
N26      N      0.337360000000     0.249130000000     0.496270000000    -0.186927   
N27      N      0.087620000000     0.242370000000     0.495420000000    -0.177688   
N28      N      0.153190000000     0.240820000000     0.495780000000    -0.186592   
N29      N      0.241480000000     0.402540000000     0.996990000000    -0.180381   
N30      N      0.240510000000     0.336970000000     0.996880000000    -0.188406   
N31      N      0.249210000000     0.087320000000     0.995030000000    -0.179966   
N32      N      0.250100000000     0.152890000000     0.995430000000    -0.188274   
N33      N      0.245850000000     0.992360000000     0.902880000000    -0.18056    
N34      N      0.246610000000     0.491000000000     0.837370000000    -0.187257   
N35      N      0.244750000000     0.495400000000     0.652810000000    -0.178367   
N36      N      0.245210000000     0.495230000000     0.587360000000    -0.187206   
N37      N      0.994930000000     0.245910000000     0.903150000000    -0.180302   
N38      N      0.995500000000     0.246340000000     0.837580000000    -0.188186   
N39      N      0.996660000000     0.245080000000     0.653180000000    -0.179593   
N40      N      0.997050000000     0.244520000000     0.587640000000    -0.188929   
N41      N      0.087790000000     0.991030000000     0.745380000000    -0.180187   
N42      N      0.153230000000     0.988830000000     0.745940000000    -0.188845   
N43      N      0.402970000000     0.997970000000     0.742450000000    -0.18039    
N44      N      0.337400000000     0.998040000000     0.741820000000    -0.188727   
N45      N      0.494660000000     0.402680000000     0.745480000000    -0.178372   
N46      N      0.495650000000     0.337140000000     0.745040000000    -0.186905   
N47      N      0.497730000000     0.087440000000     0.742240000000    -0.177991   
N48      N      0.496900000000     0.152960000000     0.742670000000    -0.186933   
N49      N      0.402930000000     0.747690000000     0.996120000000    -0.180416   
N50      N      0.337360000000     0.749130000000     0.996270000000    -0.188451   
N51      N      0.087620000000     0.742370000000     0.995410000000    -0.179986   
N52      N      0.153190000000     0.740820000000     0.995780000000    -0.188089   
N53      N      0.241480000000     0.902540000000     0.496990000000    -0.178077   
N54      N      0.240510000000     0.836970000000     0.496880000000    -0.186888   
N55      N      0.249210000000     0.587320000000     0.495030000000    -0.178061   
N56      N      0.250100000000     0.652880000000     0.495430000000    -0.186712   
N57      N      0.245850000000     0.492360000000     0.402880000000    -0.17829    
N58      N      0.246610000000     0.991000000000     0.337370000000    -0.188801   
N59      N      0.244750000000     0.995400000000     0.152810000000    -0.179831   
N60      N      0.245210000000     0.995230000000     0.087360000000    -0.189144   
N61      N      0.994930000000     0.745910000000     0.403150000000    -0.180273   
N62      N      0.995500000000     0.746330000000     0.337580000000    -0.188223   
N63      N      0.996660000000     0.745090000000     0.153180000000    -0.179525   
N64      N      0.997050000000     0.744520000000     0.087640000000    -0.188558   
N65      N      0.087790000000     0.491030000000     0.245380000000    -0.177867   
N66      N      0.153230000000     0.488830000000     0.245940000000    -0.187331   
N67      N      0.402970000000     0.497970000000     0.242450000000    -0.178019   
N68      N      0.337400000000     0.498040000000     0.241820000000    -0.18718    
N69      N      0.494660000000     0.902680000000     0.245480000000    -0.178291   
N70      N      0.495650000000     0.837140000000     0.245040000000    -0.186902   
N71      N      0.497730000000     0.587440000000     0.242240000000    -0.178314   
N72      N      0.496900000000     0.652960000000     0.242670000000    -0.186961   
N73      N      0.402930000000     0.747690000000     0.496120000000    -0.178146   
N74      N      0.337360000000     0.749130000000     0.496270000000    -0.18693    
N75      N      0.087620000000     0.742370000000     0.495420000000    -0.177706   
N76      N      0.153190000000     0.740820000000     0.495780000000    -0.1866     
N77      N      0.241480000000     0.902540000000     0.996990000000    -0.18035    
N78      N      0.240510000000     0.836970000000     0.996880000000    -0.188412   
N79      N      0.249210000000     0.587320000000     0.995030000000    -0.180316   
N80      N      0.250100000000     0.652880000000     0.995430000000    -0.18823    
N81      N      0.245850000000     0.492360000000     0.902880000000    -0.178265   
N82      N      0.246610000000     0.991000000000     0.837370000000    -0.188806   
N83      N      0.244750000000     0.995400000000     0.652810000000    -0.179845   
N84      N      0.245210000000     0.995230000000     0.587360000000    -0.189496   
N85      N      0.994930000000     0.745910000000     0.903150000000    -0.18032    
N86      N      0.995500000000     0.746330000000     0.837580000000    -0.188226   
N87      N      0.996660000000     0.745090000000     0.653180000000    -0.179606   
N88      N      0.997050000000     0.744520000000     0.587640000000    -0.188901   
N89      N      0.087790000000     0.491030000000     0.745380000000    -0.177881   
N90      N      0.153230000000     0.488830000000     0.745940000000    -0.187339   
N91      N      0.402970000000     0.497970000000     0.742450000000    -0.178088   
N92      N      0.337400000000     0.498040000000     0.741820000000    -0.187189   
N93      N      0.494660000000     0.902680000000     0.745480000000    -0.178355   
N94      N      0.495650000000     0.837140000000     0.745040000000    -0.186911   
N95      N      0.497730000000     0.587440000000     0.742240000000    -0.178332   
N96      N      0.496900000000     0.652960000000     0.742670000000    -0.186956   
N97      N      0.902930000000     0.247690000000     0.996120000000    -0.180367   
N98      N      0.837360000000     0.249130000000     0.996270000000    -0.188451   
N99      N      0.587620000000     0.242370000000     0.995410000000    -0.180304   
N100     N      0.653190000000     0.240820000000     0.995780000000    -0.188079   
N101     N      0.741480000000     0.402540000000     0.496990000000    -0.178133   
N102     N      0.740510000000     0.336970000000     0.496880000000    -0.186894   
N103     N      0.749220000000     0.087320000000     0.495030000000    -0.177747   
N104     N      0.750100000000     0.152890000000     0.495430000000    -0.186745   
N105     N      0.745850000000     0.992360000000     0.402880000000    -0.180565   
N106     N      0.746610000000     0.491000000000     0.337370000000    -0.187265   
N107     N      0.744750000000     0.495400000000     0.152810000000    -0.178381   
N108     N      0.745210000000     0.495230000000     0.087360000000    -0.186888   
N109     N      0.494930000000     0.245910000000     0.403150000000    -0.177916   
N110     N      0.495500000000     0.246340000000     0.337580000000    -0.186764   
N111     N      0.496660000000     0.245080000000     0.153180000000    -0.177982   
N112     N      0.497050000000     0.244520000000     0.087640000000    -0.186339   
N113     N      0.587790000000     0.991030000000     0.245380000000    -0.180506   
N114     N      0.653230000000     0.988830000000     0.245940000000    -0.188861   
N115     N      0.902970000000     0.997970000000     0.242450000000    -0.180218   
N116     N      0.837400000000     0.998040000000     0.241820000000    -0.188723   
N117     N      0.994660000000     0.402680000000     0.245480000000    -0.18065    
N118     N      0.995650000000     0.337140000000     0.245040000000    -0.188312   
N119     N      0.997730000000     0.087440000000     0.242240000000    -0.180239   
N120     N      0.996900000000     0.152960000000     0.242670000000    -0.188463   
N121     N      0.902930000000     0.247690000000     0.496120000000    -0.178101   
N122     N      0.837360000000     0.249130000000     0.496270000000    -0.186932   
N123     N      0.587620000000     0.242370000000     0.495420000000    -0.178017   
N124     N      0.653190000000     0.240820000000     0.495780000000    -0.186588   
N125     N      0.741480000000     0.402540000000     0.996990000000    -0.18041    
N126     N      0.740510000000     0.336970000000     0.996880000000    -0.188419   
N127     N      0.749220000000     0.087320000000     0.995030000000    -0.179996   
N128     N      0.750100000000     0.152890000000     0.995430000000    -0.188259   
N129     N      0.745850000000     0.992360000000     0.902880000000    -0.180541   
N130     N      0.746610000000     0.491000000000     0.837370000000    -0.187268   
N131     N      0.744750000000     0.495400000000     0.652810000000    -0.178389   
N132     N      0.745210000000     0.495230000000     0.587360000000    -0.187231   
N133     N      0.494930000000     0.245910000000     0.903150000000    -0.177962   
N134     N      0.495500000000     0.246340000000     0.837580000000    -0.186766   
N135     N      0.496660000000     0.245080000000     0.653180000000    -0.178058   
N136     N      0.497050000000     0.244520000000     0.587640000000    -0.186672   
N137     N      0.587790000000     0.991030000000     0.745380000000    -0.180525   
N138     N      0.653230000000     0.988830000000     0.745940000000    -0.188872   
N139     N      0.902970000000     0.997970000000     0.742450000000    -0.180291   
N140     N      0.837400000000     0.998040000000     0.741820000000    -0.188736   
N141     N      0.994660000000     0.402680000000     0.745480000000    -0.180721   
N142     N      0.995650000000     0.337140000000     0.745040000000    -0.188325   
N143     N      0.997730000000     0.087440000000     0.742240000000    -0.180261   
N144     N      0.996900000000     0.152960000000     0.742670000000    -0.18846    
N145     N      0.902930000000     0.747690000000     0.996120000000    -0.180394   
N146     N      0.837360000000     0.749130000000     0.996270000000    -0.188458   
N147     N      0.587620000000     0.742370000000     0.995410000000    -0.180328   
N148     N      0.653190000000     0.740820000000     0.995780000000    -0.18809    
N149     N      0.741480000000     0.902540000000     0.496990000000    -0.178101   
N150     N      0.740510000000     0.836970000000     0.496880000000    -0.186898   
N151     N      0.749220000000     0.587320000000     0.495030000000    -0.178087   
N152     N      0.750100000000     0.652880000000     0.495430000000    -0.186693   
N153     N      0.745850000000     0.492360000000     0.402880000000    -0.178265   
N154     N      0.746610000000     0.991000000000     0.337370000000    -0.188817   
N155     N      0.744750000000     0.995400000000     0.152810000000    -0.179857   
N156     N      0.745210000000     0.995230000000     0.087360000000    -0.189174   
N157     N      0.494930000000     0.745910000000     0.403150000000    -0.177928   
N158     N      0.495500000000     0.746330000000     0.337580000000    -0.186802   
N159     N      0.496660000000     0.745090000000     0.153180000000    -0.177992   
N160     N      0.497050000000     0.744520000000     0.087640000000    -0.186305   
N161     N      0.587790000000     0.491030000000     0.245380000000    -0.178193   
N162     N      0.653230000000     0.488830000000     0.245940000000    -0.187352   
N163     N      0.902970000000     0.497970000000     0.242450000000    -0.177919   
N164     N      0.837400000000     0.498040000000     0.241820000000    -0.187188   
N165     N      0.994660000000     0.902680000000     0.245480000000    -0.180635   
N166     N      0.995650000000     0.837140000000     0.245040000000    -0.18832    
N167     N      0.997730000000     0.587440000000     0.242240000000    -0.18059    
N168     N      0.996900000000     0.652960000000     0.242670000000    -0.188492   
N169     N      0.902930000000     0.747690000000     0.496120000000    -0.178123   
N170     N      0.837360000000     0.749130000000     0.496270000000    -0.186935   
N171     N      0.587620000000     0.742370000000     0.495420000000    -0.178036   
N172     N      0.653190000000     0.740820000000     0.495780000000    -0.186596   
N173     N      0.741480000000     0.902540000000     0.996990000000    -0.180379   
N174     N      0.740510000000     0.836970000000     0.996880000000    -0.188425   
N175     N      0.749220000000     0.587320000000     0.995030000000    -0.180346   
N176     N      0.750100000000     0.652880000000     0.995430000000    -0.188215   
N177     N      0.745850000000     0.492360000000     0.902880000000    -0.17824    
N178     N      0.746610000000     0.991000000000     0.837370000000    -0.188821   
N179     N      0.744750000000     0.995400000000     0.652810000000    -0.179872   
N180     N      0.745210000000     0.995230000000     0.587360000000    -0.189527   
N181     N      0.494930000000     0.745910000000     0.903150000000    -0.177974   
N182     N      0.495500000000     0.746330000000     0.837580000000    -0.186804   
N183     N      0.496660000000     0.745090000000     0.653180000000    -0.178068   
N184     N      0.497050000000     0.744520000000     0.587640000000    -0.186638   
N185     N      0.587790000000     0.491030000000     0.745380000000    -0.178208   
N186     N      0.653230000000     0.488830000000     0.745940000000    -0.187359   
N187     N      0.902970000000     0.497970000000     0.742450000000    -0.177987   
N188     N      0.837400000000     0.498040000000     0.741820000000    -0.187197   
N189     N      0.994660000000     0.902680000000     0.745480000000    -0.180706   
N190     N      0.995650000000     0.837140000000     0.745040000000    -0.188333   
N191     N      0.997730000000     0.587440000000     0.742240000000    -0.180613   
N192     N      0.996900000000     0.652960000000     0.742670000000    -0.188489   
Ni1      Ni     0.495000000000     0.995940000000     0.272060000000     0.993501   
Ni2      Ni     0.995840000000     0.994210000000     0.215980000000     1.00233    
Ni3      Ni     0.468180000000     0.244950000000     0.245320000000     0.996502   
Ni4      Ni     0.024060000000     0.245100000000     0.245590000000     1.00724    
Ni5      Ni     0.247070000000     0.465290000000     0.244060000000     1.01025    
Ni6      Ni     0.243490000000     0.021440000000     0.246280000000     1.00673    
Ni7      Ni     0.217360000000     0.996490000000     0.495130000000     0.997428   
Ni8      Ni     0.273450000000     0.993380000000     0.995350000000     0.997543   
Ni9      Ni     0.996030000000     0.272990000000     0.995750000000     0.992882   
Ni10     Ni     0.494500000000     0.217150000000     0.995230000000     0.99429    
Ni11     Ni     0.245230000000     0.244720000000     0.023920000000     1.00748    
Ni12     Ni     0.245350000000     0.245160000000     0.468110000000     0.995022   
Ni13     Ni     0.495000000000     0.995940000000     0.772060000000     0.993461   
Ni14     Ni     0.995840000000     0.994210000000     0.715990000000     1.00189    
Ni15     Ni     0.468180000000     0.244950000000     0.745320000000     0.996483   
Ni16     Ni     0.024060000000     0.245100000000     0.745590000000     1.00728    
Ni17     Ni     0.247070000000     0.465290000000     0.744060000000     1.01026    
Ni18     Ni     0.243490000000     0.021440000000     0.746280000000     1.00671    
Ni19     Ni     0.217360000000     0.996490000000     0.995120000000     0.993076   
Ni20     Ni     0.273450000000     0.993380000000     0.495350000000     1.00196    
Ni21     Ni     0.996030000000     0.272990000000     0.495750000000     0.997245   
Ni22     Ni     0.494500000000     0.217150000000     0.495230000000     0.998676   
Ni23     Ni     0.245230000000     0.244720000000     0.523920000000     1.00468    
Ni24     Ni     0.245350000000     0.245160000000     0.968110000000     0.98959    
Ni25     Ni     0.495000000000     0.495940000000     0.272060000000     0.998112   
Ni26     Ni     0.995840000000     0.494210000000     0.215980000000     1.00642    
Ni27     Ni     0.468180000000     0.744950000000     0.245320000000     0.996508   
Ni28     Ni     0.024060000000     0.745100000000     0.245590000000     1.00721    
Ni29     Ni     0.247070000000     0.965290000000     0.244060000000     1.00473    
Ni30     Ni     0.243490000000     0.521440000000     0.246280000000     1.00391    
Ni31     Ni     0.217360000000     0.496490000000     0.495130000000     1.00206    
Ni32     Ni     0.273450000000     0.493380000000     0.995350000000     1.0016     
Ni33     Ni     0.996030000000     0.772990000000     0.995750000000     0.992776   
Ni34     Ni     0.494500000000     0.717150000000     0.995230000000     0.993944   
Ni35     Ni     0.245230000000     0.744720000000     0.023920000000     1.00746    
Ni36     Ni     0.245350000000     0.745160000000     0.468110000000     0.995016   
Ni37     Ni     0.495000000000     0.495940000000     0.772060000000     0.998076   
Ni38     Ni     0.995840000000     0.494210000000     0.715990000000     1.00598    
Ni39     Ni     0.468180000000     0.744950000000     0.745320000000     0.996489   
Ni40     Ni     0.024060000000     0.745100000000     0.745590000000     1.00725    
Ni41     Ni     0.247070000000     0.965290000000     0.744060000000     1.00473    
Ni42     Ni     0.243490000000     0.521440000000     0.746280000000     1.00389    
Ni43     Ni     0.217360000000     0.496490000000     0.995120000000     0.997702   
Ni44     Ni     0.273450000000     0.493380000000     0.495350000000     1.00602    
Ni45     Ni     0.996030000000     0.772990000000     0.495750000000     0.997143   
Ni46     Ni     0.494500000000     0.717150000000     0.495230000000     0.998341   
Ni47     Ni     0.245230000000     0.744720000000     0.523920000000     1.00465    
Ni48     Ni     0.245350000000     0.745160000000     0.968110000000     0.989572   
Ni49     Ni     0.995000000000     0.995940000000     0.272060000000     0.989126   
Ni50     Ni     0.495840000000     0.994210000000     0.215980000000     1.00676    
Ni51     Ni     0.968180000000     0.244950000000     0.245320000000     0.990996   
Ni52     Ni     0.524060000000     0.245100000000     0.245590000000     1.00456    
Ni53     Ni     0.747070000000     0.465290000000     0.244060000000     1.01026    
Ni54     Ni     0.743490000000     0.021440000000     0.246280000000     1.0067     
Ni55     Ni     0.717360000000     0.996490000000     0.495130000000     0.997261   
Ni56     Ni     0.773460000000     0.993380000000     0.995350000000     0.9975     
Ni57     Ni     0.496030000000     0.272990000000     0.995750000000     0.997377   
Ni58     Ni     0.994500000000     0.217150000000     0.995230000000     0.99009    
Ni59     Ni     0.745230000000     0.244720000000     0.023920000000     1.00748    
Ni60     Ni     0.745350000000     0.245160000000     0.468110000000     0.995022   
Ni61     Ni     0.995000000000     0.995940000000     0.772060000000     0.98908    
Ni62     Ni     0.495840000000     0.994210000000     0.715990000000     1.00633    
Ni63     Ni     0.968180000000     0.244950000000     0.745320000000     0.990964   
Ni64     Ni     0.524060000000     0.245100000000     0.745590000000     1.0046     
Ni65     Ni     0.747070000000     0.465290000000     0.744060000000     1.01027    
Ni66     Ni     0.743490000000     0.021440000000     0.746280000000     1.00669    
Ni67     Ni     0.717360000000     0.996490000000     0.995120000000     0.992897   
Ni68     Ni     0.773460000000     0.993380000000     0.495350000000     1.00192    
Ni69     Ni     0.496030000000     0.272990000000     0.495750000000     1.00175    
Ni70     Ni     0.994500000000     0.217150000000     0.495230000000     0.994468   
Ni71     Ni     0.745230000000     0.244720000000     0.523920000000     1.00467    
Ni72     Ni     0.745350000000     0.245160000000     0.968110000000     0.989577   
Ni73     Ni     0.995000000000     0.495940000000     0.272060000000     0.993728   
Ni74     Ni     0.495840000000     0.494210000000     0.215980000000     1.01085    
Ni75     Ni     0.968180000000     0.744950000000     0.245320000000     0.990988   
Ni76     Ni     0.524060000000     0.745100000000     0.245590000000     1.00452    
Ni77     Ni     0.747070000000     0.965290000000     0.244060000000     1.00473    
Ni78     Ni     0.743490000000     0.521440000000     0.246280000000     1.00387    
Ni79     Ni     0.717360000000     0.496490000000     0.495130000000     1.00191    
Ni80     Ni     0.773460000000     0.493380000000     0.995350000000     1.00156    
Ni81     Ni     0.496030000000     0.772990000000     0.995750000000     0.997275   
Ni82     Ni     0.994500000000     0.717150000000     0.995230000000     0.989732   
Ni83     Ni     0.745230000000     0.744720000000     0.023920000000     1.00746    
Ni84     Ni     0.745350000000     0.745160000000     0.468110000000     0.995015   
Ni85     Ni     0.995000000000     0.495940000000     0.772060000000     0.993687   
Ni86     Ni     0.495840000000     0.494210000000     0.715990000000     1.01043    
Ni87     Ni     0.968180000000     0.744950000000     0.745320000000     0.990956   
Ni88     Ni     0.524060000000     0.745100000000     0.745590000000     1.00456    
Ni89     Ni     0.747070000000     0.965290000000     0.744060000000     1.00472    
Ni90     Ni     0.743490000000     0.521440000000     0.746280000000     1.00385    
Ni91     Ni     0.717360000000     0.496490000000     0.995120000000     0.997536   
Ni92     Ni     0.773460000000     0.493380000000     0.495350000000     1.00599    
Ni93     Ni     0.496030000000     0.772990000000     0.495750000000     1.00165    
Ni94     Ni     0.994500000000     0.717150000000     0.495230000000     0.994121   
Ni95     Ni     0.745230000000     0.744720000000     0.523920000000     1.00464    
Ni96     Ni     0.745350000000     0.745160000000     0.968110000000     0.989558   
O1       O      0.449920000000     0.499760000000     0.269410000000    -0.444839   
O2       O      0.040140000000     0.992950000000     0.270930000000    -0.442991   
O3       O      0.498830000000     0.040740000000     0.269270000000    -0.443978   
O4       O      0.991380000000     0.450540000000     0.270990000000    -0.442856   
O5       O      0.496820000000     0.449410000000     0.218790000000    -0.451033   
O6       O      0.994890000000     0.039570000000     0.216930000000    -0.442958   
O7       O      0.040990000000     0.494020000000     0.218420000000    -0.443628   
O8       O      0.450650000000     0.993420000000     0.217310000000    -0.447676   
O9       O      0.470460000000     0.249610000000     0.200340000000    -0.443978   
O10      O      0.470010000000     0.240380000000     0.290320000000    -0.444495   
O11      O      0.469970000000     0.289930000000     0.250050000000    -0.444738   
O12      O      0.470470000000     0.200030000000     0.240420000000    -0.44509    
O13      O      0.022240000000     0.200090000000     0.249460000000    -0.442143   
O14      O      0.021830000000     0.290040000000     0.241570000000    -0.44323    
O15      O      0.021790000000     0.249230000000     0.290490000000    -0.443034   
O16      O      0.022280000000     0.241050000000     0.200630000000    -0.442285   
O17      O      0.291820000000     0.469520000000     0.242730000000    -0.45028    
O18      O      0.201630000000     0.464770000000     0.244300000000    -0.443872   
O19      O      0.246660000000     0.468360000000     0.199300000000    -0.450906   
O20      O      0.248300000000     0.465950000000     0.289420000000    -0.446509   
O21      O      0.243910000000     0.018320000000     0.291150000000    -0.444848   
O22      O      0.242270000000     0.020710000000     0.200780000000    -0.439209   
O23      O      0.198720000000     0.017220000000     0.247530000000    -0.445352   
O24      O      0.289010000000     0.021950000000     0.245850000000    -0.439632   
O25      O      0.219650000000     0.497780000000     0.449930000000    -0.445802   
O26      O      0.218900000000     0.995940000000     0.040340000000    -0.443213   
O27      O      0.221250000000     0.041250000000     0.496720000000    -0.445819   
O28      O      0.217260000000     0.451030000000     0.993670000000    -0.444414   
O29      O      0.269520000000     0.448640000000     0.498500000000    -0.447927   
O30      O      0.273550000000     0.038810000000     0.992260000000    -0.439784   
O31      O      0.271530000000     0.495620000000     0.040370000000    -0.441672   
O32      O      0.271630000000     0.990180000000     0.450330000000    -0.447491   
O33      O      0.041010000000     0.269630000000     0.499540000000    -0.442012   
O34      O      0.450960000000     0.272320000000     0.991950000000    -0.44592    
O35      O      0.992220000000     0.270750000000     0.040740000000    -0.442592   
O36      O      0.499750000000     0.271240000000     0.450730000000    -0.445822   
O37      O      0.990140000000     0.219640000000     0.450260000000    -0.445104   
O38      O      0.499100000000     0.218690000000     0.040190000000    -0.441751   
O39      O      0.449580000000     0.220420000000     0.499690000000    -0.445392   
O40      O      0.039530000000     0.217880000000     0.990840000000    -0.442115   
O41      O      0.243250000000     0.199620000000     0.021490000000    -0.442433   
O42      O      0.247250000000     0.289860000000     0.022260000000    -0.442263   
O43      O      0.200110000000     0.246800000000     0.021790000000    -0.442814   
O44      O      0.290350000000     0.242670000000     0.021970000000    -0.442528   
O45      O      0.290030000000     0.252020000000     0.470310000000    -0.444918   
O46      O      0.200650000000     0.238270000000     0.470000000000    -0.442246   
O47      O      0.238340000000     0.289850000000     0.470510000000    -0.443827   
O48      O      0.252350000000     0.200440000000     0.469790000000    -0.443405   
O49      O      0.449920000000     0.499760000000     0.769400000000    -0.445047   
O50      O      0.040140000000     0.992950000000     0.770930000000    -0.443031   
O51      O      0.498830000000     0.040740000000     0.769270000000    -0.44412    
O52      O      0.991380000000     0.450540000000     0.770980000000    -0.443167   
O53      O      0.496820000000     0.449410000000     0.718790000000    -0.451039   
O54      O      0.994890000000     0.039570000000     0.716930000000    -0.442912   
O55      O      0.040990000000     0.494020000000     0.718420000000    -0.443677   
O56      O      0.450650000000     0.993420000000     0.717310000000    -0.447797   
O57      O      0.470460000000     0.249610000000     0.700340000000    -0.443932   
O58      O      0.470010000000     0.240380000000     0.790320000000    -0.444504   
O59      O      0.469970000000     0.289930000000     0.750050000000    -0.444758   
O60      O      0.470470000000     0.200030000000     0.740420000000    -0.445109   
O61      O      0.022240000000     0.200090000000     0.749450000000    -0.442194   
O62      O      0.021830000000     0.290040000000     0.741570000000    -0.443223   
O63      O      0.021790000000     0.249230000000     0.790490000000    -0.443038   
O64      O      0.022280000000     0.241050000000     0.700630000000    -0.442209   
O65      O      0.291820000000     0.469520000000     0.742730000000    -0.450275   
O66      O      0.201630000000     0.464770000000     0.744300000000    -0.44388    
O67      O      0.246660000000     0.468360000000     0.699300000000    -0.450926   
O68      O      0.248300000000     0.465950000000     0.789420000000    -0.446507   
O69      O      0.243910000000     0.018320000000     0.791150000000    -0.444847   
O70      O      0.242270000000     0.020710000000     0.700780000000    -0.439246   
O71      O      0.198720000000     0.017220000000     0.747530000000    -0.445361   
O72      O      0.289010000000     0.021950000000     0.745850000000    -0.439651   
O73      O      0.219650000000     0.497780000000     0.949930000000    -0.4453     
O74      O      0.218900000000     0.995940000000     0.540340000000    -0.446901   
O75      O      0.221250000000     0.041250000000     0.996730000000    -0.446729   
O76      O      0.217260000000     0.451030000000     0.493670000000    -0.444118   
O77      O      0.269520000000     0.448640000000     0.998500000000    -0.448935   
O78      O      0.273550000000     0.038810000000     0.492260000000    -0.439514   
O79      O      0.271530000000     0.495620000000     0.540370000000    -0.445226   
O80      O      0.271630000000     0.990180000000     0.950330000000    -0.446876   
O81      O      0.041010000000     0.269630000000     0.999540000000    -0.443029   
O82      O      0.450960000000     0.272320000000     0.491950000000    -0.445687   
O83      O      0.992220000000     0.270750000000     0.540740000000    -0.44616    
O84      O      0.499750000000     0.271240000000     0.950730000000    -0.44511    
O85      O      0.990140000000     0.219640000000     0.950260000000    -0.444397   
O86      O      0.499100000000     0.218690000000     0.540190000000    -0.445226   
O87      O      0.449580000000     0.220420000000     0.999690000000    -0.446406   
O88      O      0.039530000000     0.217880000000     0.490840000000    -0.441849   
O89      O      0.243250000000     0.199620000000     0.521490000000    -0.446451   
O90      O      0.247250000000     0.289860000000     0.522260000000    -0.446274   
O91      O      0.200110000000     0.246800000000     0.521790000000    -0.446825   
O92      O      0.290350000000     0.242670000000     0.521970000000    -0.446542   
O93      O      0.290030000000     0.252020000000     0.970310000000    -0.443451   
O94      O      0.200650000000     0.238270000000     0.970000000000    -0.440784   
O95      O      0.238340000000     0.289850000000     0.970510000000    -0.442363   
O96      O      0.252350000000     0.200440000000     0.969790000000    -0.441939   
O97      O      0.449920000000     0.999760000000     0.269410000000    -0.445819   
O98      O      0.040140000000     0.492950000000     0.270930000000    -0.442105   
O99      O      0.498830000000     0.540740000000     0.269270000000    -0.447561   
O100     O      0.991380000000     0.950540000000     0.270990000000    -0.442288   
O101     O      0.496820000000     0.949410000000     0.218790000000    -0.45038    
O102     O      0.994890000000     0.539580000000     0.216930000000    -0.446566   
O103     O      0.040990000000     0.994020000000     0.218420000000    -0.444032   
O104     O      0.450650000000     0.493410000000     0.217310000000    -0.447368   
O105     O      0.470460000000     0.749610000000     0.200340000000    -0.444006   
O106     O      0.470010000000     0.740380000000     0.290320000000    -0.444553   
O107     O      0.469970000000     0.789930000000     0.250050000000    -0.444743   
O108     O      0.470470000000     0.700030000000     0.240420000000    -0.445125   
O109     O      0.022240000000     0.700090000000     0.249460000000    -0.442186   
O110     O      0.021830000000     0.790040000000     0.241570000000    -0.443226   
O111     O      0.021790000000     0.749230000000     0.290490000000    -0.443029   
O112     O      0.022280000000     0.741050000000     0.200630000000    -0.442276   
O113     O      0.291820000000     0.969520000000     0.242730000000    -0.448745   
O114     O      0.201630000000     0.964770000000     0.244300000000    -0.442489   
O115     O      0.246660000000     0.968360000000     0.199300000000    -0.449332   
O116     O      0.248300000000     0.965950000000     0.289420000000    -0.445033   
O117     O      0.243910000000     0.518320000000     0.291150000000    -0.448703   
O118     O      0.242270000000     0.520710000000     0.200780000000    -0.443352   
O119     O      0.198720000000     0.517220000000     0.247530000000    -0.449381   
O120     O      0.289010000000     0.521950000000     0.245850000000    -0.443774   
O121     O      0.219650000000     0.997780000000     0.449930000000    -0.446805   
O122     O      0.218900000000     0.495940000000     0.040340000000    -0.442482   
O123     O      0.221250000000     0.541250000000     0.496720000000    -0.449401   
O124     O      0.217260000000     0.951030000000     0.993670000000    -0.443813   
O125     O      0.269520000000     0.948640000000     0.498500000000    -0.447262   
O126     O      0.273550000000     0.538820000000     0.992260000000    -0.443365   
O127     O      0.271530000000     0.995620000000     0.040370000000    -0.44213    
O128     O      0.271630000000     0.490180000000     0.450330000000    -0.44719    
O129     O      0.041010000000     0.769630000000     0.499540000000    -0.442045   
O130     O      0.450960000000     0.772320000000     0.991950000000    -0.445963   
O131     O      0.992220000000     0.770760000000     0.040740000000    -0.442454   
O132     O      0.499750000000     0.771240000000     0.450730000000    -0.445867   
O133     O      0.990140000000     0.719640000000     0.450260000000    -0.445192   
O134     O      0.499100000000     0.718690000000     0.040190000000    -0.441756   
O135     O      0.449580000000     0.720420000000     0.499690000000    -0.445488   
O136     O      0.039530000000     0.717880000000     0.990840000000    -0.442188   
O137     O      0.243250000000     0.699620000000     0.021490000000    -0.442449   
O138     O      0.247250000000     0.789860000000     0.022260000000    -0.442257   
O139     O      0.200110000000     0.746800000000     0.021790000000    -0.442824   
O140     O      0.290350000000     0.742670000000     0.021970000000    -0.442544   
O141     O      0.290030000000     0.752020000000     0.470310000000    -0.444922   
O142     O      0.200650000000     0.738270000000     0.470000000000    -0.442252   
O143     O      0.238340000000     0.789850000000     0.470510000000    -0.443824   
O144     O      0.252350000000     0.700440000000     0.469790000000    -0.44339    
O145     O      0.449920000000     0.999760000000     0.769400000000    -0.446028   
O146     O      0.040140000000     0.492950000000     0.770930000000    -0.442144   
O147     O      0.498830000000     0.540740000000     0.769270000000    -0.44771    
O148     O      0.991380000000     0.950540000000     0.770980000000    -0.442597   
O149     O      0.496820000000     0.949410000000     0.718790000000    -0.450385   
O150     O      0.994890000000     0.539580000000     0.716930000000    -0.44653    
O151     O      0.040990000000     0.994020000000     0.718420000000    -0.444082   
O152     O      0.450650000000     0.493410000000     0.717310000000    -0.447488   
O153     O      0.470460000000     0.749610000000     0.700340000000    -0.443961   
O154     O      0.470010000000     0.740380000000     0.790320000000    -0.444562   
O155     O      0.469970000000     0.789930000000     0.750050000000    -0.444763   
O156     O      0.470470000000     0.700030000000     0.740420000000    -0.445143   
O157     O      0.022240000000     0.700090000000     0.749450000000    -0.442238   
O158     O      0.021830000000     0.790040000000     0.741570000000    -0.443219   
O159     O      0.021790000000     0.749230000000     0.790490000000    -0.443033   
O160     O      0.022280000000     0.741050000000     0.700630000000    -0.4422     
O161     O      0.291820000000     0.969520000000     0.742730000000    -0.448736   
O162     O      0.201630000000     0.964770000000     0.744300000000    -0.442494   
O163     O      0.246660000000     0.968360000000     0.699300000000    -0.449349   
O164     O      0.248300000000     0.965950000000     0.789420000000    -0.445028   
O165     O      0.243910000000     0.518320000000     0.791150000000    -0.448709   
O166     O      0.242270000000     0.520710000000     0.700780000000    -0.443402   
O167     O      0.198720000000     0.517220000000     0.747530000000    -0.449401   
O168     O      0.289010000000     0.521950000000     0.745850000000    -0.443803   
O169     O      0.219650000000     0.997780000000     0.949930000000    -0.446303   
O170     O      0.218900000000     0.495940000000     0.540340000000    -0.446169   
O171     O      0.221250000000     0.541250000000     0.996730000000    -0.450314   
O172     O      0.217260000000     0.951030000000     0.493670000000    -0.443516   
O173     O      0.269520000000     0.948640000000     0.998500000000    -0.448271   
O174     O      0.273550000000     0.538820000000     0.492260000000    -0.443094   
O175     O      0.271530000000     0.995620000000     0.540370000000    -0.445684   
O176     O      0.271630000000     0.490180000000     0.950330000000    -0.446575   
O177     O      0.041010000000     0.769630000000     0.999540000000    -0.443063   
O178     O      0.450960000000     0.772320000000     0.491950000000    -0.44573    
O179     O      0.992220000000     0.770760000000     0.540740000000    -0.446029   
O180     O      0.499750000000     0.771240000000     0.950730000000    -0.445153   
O181     O      0.990140000000     0.719640000000     0.950260000000    -0.444483   
O182     O      0.499100000000     0.718690000000     0.540190000000    -0.445241   
O183     O      0.449580000000     0.720420000000     0.999690000000    -0.446504   
O184     O      0.039530000000     0.717880000000     0.490840000000    -0.441921   
O185     O      0.243250000000     0.699620000000     0.521490000000    -0.44648    
O186     O      0.247250000000     0.789860000000     0.522260000000    -0.446275   
O187     O      0.200110000000     0.746800000000     0.521790000000    -0.446845   
O188     O      0.290350000000     0.742670000000     0.521970000000    -0.446568   
O189     O      0.290030000000     0.752020000000     0.970310000000    -0.443452   
O190     O      0.200650000000     0.738270000000     0.970000000000    -0.440787   
O191     O      0.238340000000     0.789850000000     0.970510000000    -0.442358   
O192     O      0.252350000000     0.700440000000     0.969790000000    -0.441921   
O193     O      0.949920000000     0.499760000000     0.269410000000    -0.44431    
O194     O      0.540140000000     0.992950000000     0.270930000000    -0.446557   
O195     O      0.998830000000     0.040740000000     0.269270000000    -0.444951   
O196     O      0.491380000000     0.450540000000     0.270990000000    -0.442548   
O197     O      0.996820000000     0.449410000000     0.218790000000    -0.452021   
O198     O      0.494890000000     0.039570000000     0.216930000000    -0.442662   
O199     O      0.540990000000     0.494020000000     0.218420000000    -0.447173   
O200     O      0.950650000000     0.993420000000     0.217310000000    -0.447137   
O201     O      0.970460000000     0.249610000000     0.200340000000    -0.442583   
O202     O      0.970010000000     0.240380000000     0.290320000000    -0.44313    
O203     O      0.969970000000     0.289930000000     0.250050000000    -0.443379   
O204     O      0.970470000000     0.200030000000     0.240420000000    -0.443627   
O205     O      0.522240000000     0.200090000000     0.249460000000    -0.446173   
O206     O      0.521830000000     0.290040000000     0.241570000000    -0.44708    
O207     O      0.521790000000     0.249230000000     0.290490000000    -0.446945   
O208     O      0.522280000000     0.241050000000     0.200630000000    -0.446232   
O209     O      0.791820000000     0.469520000000     0.242730000000    -0.450285   
O210     O      0.701630000000     0.464770000000     0.244300000000    -0.443903   
O211     O      0.746660000000     0.468360000000     0.199300000000    -0.450911   
O212     O      0.748300000000     0.465950000000     0.289420000000    -0.446533   
O213     O      0.743910000000     0.018320000000     0.291150000000    -0.444848   
O214     O      0.742270000000     0.020710000000     0.200780000000    -0.439221   
O215     O      0.698720000000     0.017220000000     0.247530000000    -0.445391   
O216     O      0.789010000000     0.021950000000     0.245850000000    -0.439639   
O217     O      0.719650000000     0.497780000000     0.449930000000    -0.445854   
O218     O      0.718900000000     0.995940000000     0.040340000000    -0.443321   
O219     O      0.721250000000     0.041250000000     0.496720000000    -0.445915   
O220     O      0.717260000000     0.451030000000     0.993670000000    -0.444534   
O221     O      0.769520000000     0.448640000000     0.498500000000    -0.447995   
O222     O      0.773550000000     0.038810000000     0.992260000000    -0.439861   
O223     O      0.771530000000     0.495620000000     0.040370000000    -0.441739   
O224     O      0.771640000000     0.990180000000     0.450330000000    -0.447405   
O225     O      0.541010000000     0.269630000000     0.499540000000    -0.44557    
O226     O      0.950960000000     0.272320000000     0.991950000000    -0.445318   
O227     O      0.492220000000     0.270750000000     0.040740000000    -0.442266   
O228     O      0.999750000000     0.271240000000     0.450730000000    -0.446876   
O229     O      0.490140000000     0.219640000000     0.450260000000    -0.444843   
O230     O      0.999100000000     0.218690000000     0.040190000000    -0.442814   
O231     O      0.949580000000     0.220420000000     0.499690000000    -0.44479    
O232     O      0.539540000000     0.217880000000     0.990840000000    -0.445578   
O233     O      0.743250000000     0.199620000000     0.021490000000    -0.442437   
O234     O      0.747250000000     0.289860000000     0.022260000000    -0.442271   
O235     O      0.700110000000     0.246800000000     0.021790000000    -0.442832   
O236     O      0.790350000000     0.242670000000     0.021970000000    -0.44253    
O237     O      0.790030000000     0.252020000000     0.470310000000    -0.444916   
O238     O      0.700650000000     0.238270000000     0.470000000000    -0.442266   
O239     O      0.738340000000     0.289850000000     0.470510000000    -0.443828   
O240     O      0.752350000000     0.200440000000     0.469790000000    -0.443405   
O241     O      0.949920000000     0.499760000000     0.769400000000    -0.444517   
O242     O      0.540140000000     0.992950000000     0.770930000000    -0.446605   
O243     O      0.998830000000     0.040740000000     0.769270000000    -0.445094   
O244     O      0.491380000000     0.450540000000     0.770980000000    -0.442859   
O245     O      0.996820000000     0.449410000000     0.718790000000    -0.45203    
O246     O      0.494890000000     0.039570000000     0.716930000000    -0.442615   
O247     O      0.540990000000     0.494020000000     0.718420000000    -0.447233   
O248     O      0.950650000000     0.993420000000     0.717310000000    -0.447256   
O249     O      0.970460000000     0.249610000000     0.700340000000    -0.442535   
O250     O      0.970010000000     0.240380000000     0.790320000000    -0.443137   
O251     O      0.969970000000     0.289930000000     0.750050000000    -0.443396   
O252     O      0.970470000000     0.200030000000     0.740420000000    -0.443641   
O253     O      0.522240000000     0.200090000000     0.749450000000    -0.446234   
O254     O      0.521830000000     0.290040000000     0.741570000000    -0.447082   
O255     O      0.521790000000     0.249230000000     0.790490000000    -0.446956   
O256     O      0.522280000000     0.241050000000     0.700630000000    -0.446167   
O257     O      0.791820000000     0.469520000000     0.742730000000    -0.45028    
O258     O      0.701630000000     0.464770000000     0.744300000000    -0.44391    
O259     O      0.746660000000     0.468360000000     0.699300000000    -0.450932   
O260     O      0.748300000000     0.465950000000     0.789420000000    -0.44653    
O261     O      0.743910000000     0.018320000000     0.791150000000    -0.444847   
O262     O      0.742270000000     0.020710000000     0.700780000000    -0.439258   
O263     O      0.698720000000     0.017220000000     0.747530000000    -0.445401   
O264     O      0.789010000000     0.021950000000     0.745850000000    -0.439658   
O265     O      0.719650000000     0.497780000000     0.949930000000    -0.445351   
O266     O      0.718900000000     0.995940000000     0.540340000000    -0.447021   
O267     O      0.721250000000     0.041250000000     0.996730000000    -0.446828   
O268     O      0.717260000000     0.451030000000     0.493670000000    -0.444237   
O269     O      0.769520000000     0.448640000000     0.998500000000    -0.449004   
O270     O      0.773550000000     0.038810000000     0.492260000000    -0.439591   
O271     O      0.771530000000     0.495620000000     0.540370000000    -0.4453     
O272     O      0.771640000000     0.990180000000     0.950330000000    -0.446789   
O273     O      0.541010000000     0.269630000000     0.999540000000    -0.446591   
O274     O      0.950960000000     0.272320000000     0.491950000000    -0.445084   
O275     O      0.492220000000     0.270750000000     0.540740000000    -0.445833   
O276     O      0.999750000000     0.271240000000     0.950730000000    -0.446164   
O277     O      0.490140000000     0.219640000000     0.950260000000    -0.444136   
O278     O      0.999100000000     0.218690000000     0.540190000000    -0.446292   
O279     O      0.949580000000     0.220420000000     0.999690000000    -0.445804   
O280     O      0.539540000000     0.217880000000     0.490840000000    -0.445309   
O281     O      0.743250000000     0.199620000000     0.521490000000    -0.446465   
O282     O      0.747250000000     0.289860000000     0.522260000000    -0.446293   
O283     O      0.700110000000     0.246800000000     0.521790000000    -0.446857   
O284     O      0.790350000000     0.242670000000     0.521970000000    -0.446552   
O285     O      0.790030000000     0.252020000000     0.970310000000    -0.443446   
O286     O      0.700650000000     0.238270000000     0.970000000000    -0.4408     
O287     O      0.738340000000     0.289850000000     0.970510000000    -0.442361   
O288     O      0.752350000000     0.200440000000     0.969790000000    -0.441936   
O289     O      0.949920000000     0.999760000000     0.269410000000    -0.44529    
O290     O      0.540140000000     0.492950000000     0.270930000000    -0.445667   
O291     O      0.998830000000     0.540740000000     0.269270000000    -0.448538   
O292     O      0.491380000000     0.950540000000     0.270990000000    -0.44198    
O293     O      0.996820000000     0.949410000000     0.218790000000    -0.451368   
O294     O      0.494890000000     0.539580000000     0.216930000000    -0.446269   
O295     O      0.540990000000     0.994020000000     0.218420000000    -0.447577   
O296     O      0.950650000000     0.493410000000     0.217310000000    -0.446829   
O297     O      0.970460000000     0.749610000000     0.200340000000    -0.442608   
O298     O      0.970010000000     0.740380000000     0.290320000000    -0.443185   
O299     O      0.969970000000     0.789930000000     0.250050000000    -0.44338    
O300     O      0.970470000000     0.700030000000     0.240420000000    -0.443657   
O301     O      0.522240000000     0.700090000000     0.249460000000    -0.44623    
O302     O      0.521830000000     0.790040000000     0.241570000000    -0.447082   
O303     O      0.521790000000     0.749230000000     0.290490000000    -0.446949   
O304     O      0.522280000000     0.741050000000     0.200630000000    -0.446233   
O305     O      0.791820000000     0.969520000000     0.242730000000    -0.448747   
O306     O      0.701630000000     0.964770000000     0.244300000000    -0.442516   
O307     O      0.746660000000     0.968360000000     0.199300000000    -0.449334   
O308     O      0.748300000000     0.965950000000     0.289420000000    -0.445054   
O309     O      0.743910000000     0.518320000000     0.291150000000    -0.448713   
O310     O      0.742270000000     0.520710000000     0.200780000000    -0.443375   
O311     O      0.698720000000     0.517220000000     0.247530000000    -0.449435   
O312     O      0.789010000000     0.521950000000     0.245850000000    -0.443788   
O313     O      0.719650000000     0.997780000000     0.449930000000    -0.446859   
O314     O      0.718900000000     0.495940000000     0.040340000000    -0.44259    
O315     O      0.721250000000     0.541250000000     0.496720000000    -0.449508   
O316     O      0.717260000000     0.951030000000     0.993670000000    -0.443931   
O317     O      0.769520000000     0.948640000000     0.498500000000    -0.447328   
O318     O      0.773550000000     0.538820000000     0.992260000000    -0.44345    
O319     O      0.771530000000     0.995620000000     0.040370000000    -0.442197   
O320     O      0.771640000000     0.490180000000     0.450330000000    -0.447105   
O321     O      0.541010000000     0.769630000000     0.499540000000    -0.445611   
O322     O      0.950960000000     0.772320000000     0.991950000000    -0.44536    
O323     O      0.492220000000     0.770760000000     0.040740000000    -0.442128   
O324     O      0.999750000000     0.771240000000     0.450730000000    -0.446922   
O325     O      0.490140000000     0.719640000000     0.450260000000    -0.444931   
O326     O      0.999100000000     0.718690000000     0.040190000000    -0.442822   
O327     O      0.949580000000     0.720420000000     0.499690000000    -0.444884   
O328     O      0.539540000000     0.717880000000     0.990840000000    -0.445661   
O329     O      0.743250000000     0.699620000000     0.021490000000    -0.442454   
O330     O      0.747250000000     0.789860000000     0.022260000000    -0.442266   
O331     O      0.700110000000     0.746800000000     0.021790000000    -0.442842   
O332     O      0.790350000000     0.742670000000     0.021970000000    -0.442546   
O333     O      0.790030000000     0.752020000000     0.470310000000    -0.444919   
O334     O      0.700650000000     0.738270000000     0.470000000000    -0.442272   
O335     O      0.738340000000     0.789850000000     0.470510000000    -0.443825   
O336     O      0.752350000000     0.700440000000     0.469790000000    -0.443391   
O337     O      0.949920000000     0.999760000000     0.769400000000    -0.445498   
O338     O      0.540140000000     0.492950000000     0.770930000000    -0.445714   
O339     O      0.998830000000     0.540740000000     0.769270000000    -0.448688   
O340     O      0.491380000000     0.950540000000     0.770980000000    -0.442289   
O341     O      0.996820000000     0.949410000000     0.718790000000    -0.451376   
O342     O      0.494890000000     0.539580000000     0.716930000000    -0.446232   
O343     O      0.540990000000     0.994020000000     0.718420000000    -0.447638   
O344     O      0.950650000000     0.493410000000     0.717310000000    -0.446948   
O345     O      0.970460000000     0.749610000000     0.700340000000    -0.44256    
O346     O      0.970010000000     0.740380000000     0.790320000000    -0.443192   
O347     O      0.969970000000     0.789930000000     0.750050000000    -0.443397   
O348     O      0.970470000000     0.700030000000     0.740420000000    -0.443672   
O349     O      0.522240000000     0.700090000000     0.749450000000    -0.446292   
O350     O      0.521830000000     0.790040000000     0.741570000000    -0.447085   
O351     O      0.521790000000     0.749230000000     0.790490000000    -0.44696    
O352     O      0.522280000000     0.741050000000     0.700630000000    -0.446168   
O353     O      0.791820000000     0.969520000000     0.742730000000    -0.448738   
O354     O      0.701630000000     0.964770000000     0.744300000000    -0.442521   
O355     O      0.746660000000     0.968360000000     0.699300000000    -0.449351   
O356     O      0.748300000000     0.965950000000     0.789420000000    -0.445048   
O357     O      0.743910000000     0.518320000000     0.791150000000    -0.448718   
O358     O      0.742270000000     0.520710000000     0.700780000000    -0.443425   
O359     O      0.698720000000     0.517220000000     0.747530000000    -0.449455   
O360     O      0.789010000000     0.521950000000     0.745850000000    -0.443817   
O361     O      0.719650000000     0.997780000000     0.949930000000    -0.446356   
O362     O      0.718900000000     0.495940000000     0.540340000000    -0.446287   
O363     O      0.721250000000     0.541250000000     0.996730000000    -0.450423   
O364     O      0.717260000000     0.951030000000     0.493670000000    -0.443634   
O365     O      0.769520000000     0.948640000000     0.998500000000    -0.448338   
O366     O      0.773550000000     0.538820000000     0.492260000000    -0.443179   
O367     O      0.771530000000     0.995620000000     0.540370000000    -0.445758   
O368     O      0.771640000000     0.490180000000     0.950330000000    -0.446488   
O369     O      0.541010000000     0.769630000000     0.999540000000    -0.446633   
O370     O      0.950960000000     0.772320000000     0.491950000000    -0.445126   
O371     O      0.492220000000     0.770760000000     0.540740000000    -0.445702   
O372     O      0.999750000000     0.771240000000     0.950730000000    -0.446209   
O373     O      0.490140000000     0.719640000000     0.950260000000    -0.444222   
O374     O      0.999100000000     0.718690000000     0.540190000000    -0.44631    
O375     O      0.949580000000     0.720420000000     0.999690000000    -0.445901   
O376     O      0.539540000000     0.717880000000     0.490840000000    -0.445392   
O377     O      0.743250000000     0.699620000000     0.521490000000    -0.446495   
O378     O      0.747250000000     0.789860000000     0.522260000000    -0.446294   
O379     O      0.700110000000     0.746800000000     0.521790000000    -0.446877   
O380     O      0.790350000000     0.742670000000     0.521970000000    -0.446577   
O381     O      0.790030000000     0.752020000000     0.970310000000    -0.443446   
O382     O      0.700650000000     0.738270000000     0.970000000000    -0.440803   
O383     O      0.738340000000     0.789850000000     0.970510000000    -0.442355   
O384     O      0.752350000000     0.700440000000     0.969790000000    -0.441918   
S1       S      0.335500000000     0.303420000000     0.460350000000    -0.0339533  
S2       S      0.155120000000     0.187300000000     0.958740000000    -0.0285153  
S3       S      0.185020000000     0.334760000000     0.462960000000    -0.0336886  
S4       S      0.305050000000     0.155410000000     0.960640000000    -0.0346732  
S5       S      0.298920000000     0.452300000000     0.335690000000    -0.0328972  
S6       S      0.282320000000     0.441830000000     0.084720000000    -0.0304737  
S7       S      0.032240000000     0.300170000000     0.335480000000    -0.0297788  
S8       S      0.049810000000     0.206290000000     0.085430000000    -0.0283535  
S9       S      0.156070000000     0.457200000000     0.189290000000    -0.0296565  
S10      S      0.334960000000     0.461610000000     0.187950000000    -0.0338611  
S11      S      0.030380000000     0.335140000000     0.189950000000    -0.0281971  
S12      S      0.963130000000     0.155880000000     0.187080000000    -0.0320584  
S13      S      0.335500000000     0.303420000000     0.960350000000    -0.0353778  
S14      S      0.155120000000     0.187300000000     0.458740000000    -0.0280085  
S15      S      0.185020000000     0.334760000000     0.962950000000    -0.0351883  
S16      S      0.305050000000     0.155410000000     0.460640000000    -0.0332433  
S17      S      0.298920000000     0.452300000000     0.835690000000    -0.0330403  
S18      S      0.282320000000     0.441830000000     0.584720000000    -0.0318114  
S19      S      0.032240000000     0.300170000000     0.835480000000    -0.0299092  
S20      S      0.049810000000     0.206290000000     0.585430000000    -0.0297115  
S21      S      0.156070000000     0.457200000000     0.689290000000    -0.0299449  
S22      S      0.334960000000     0.461610000000     0.687950000000    -0.0341817  
S23      S      0.030380000000     0.335140000000     0.689950000000    -0.0285478  
S24      S      0.963130000000     0.155880000000     0.687080000000    -0.0324029  
S25      S      0.335500000000     0.803420000000     0.460350000000    -0.034073   
S26      S      0.155120000000     0.687300000000     0.958740000000    -0.0287797  
S27      S      0.185020000000     0.834760000000     0.462960000000    -0.0338818  
S28      S      0.305050000000     0.655400000000     0.960640000000    -0.0351599  
S29      S      0.298920000000     0.952300000000     0.335690000000    -0.0340796  
S30      S      0.282320000000     0.941830000000     0.084720000000    -0.0309386  
S31      S      0.032240000000     0.800170000000     0.335480000000    -0.029935   
S32      S      0.049810000000     0.706290000000     0.085430000000    -0.0285463  
S33      S      0.156070000000     0.957200000000     0.189290000000    -0.0300945  
S34      S      0.334960000000     0.961610000000     0.187950000000    -0.0347588  
S35      S      0.030380000000     0.835140000000     0.189950000000    -0.0283142  
S36      S      0.963130000000     0.655880000000     0.187080000000    -0.0325352  
S37      S      0.335500000000     0.803420000000     0.960350000000    -0.0354981  
S38      S      0.155120000000     0.687300000000     0.458740000000    -0.0282711  
S39      S      0.185020000000     0.834760000000     0.962950000000    -0.0353827  
S40      S      0.305050000000     0.655400000000     0.460640000000    -0.0337263  
S41      S      0.298920000000     0.952300000000     0.835690000000    -0.0342236  
S42      S      0.282320000000     0.941830000000     0.584720000000    -0.0322781  
S43      S      0.032240000000     0.800170000000     0.835480000000    -0.0300654  
S44      S      0.049810000000     0.706290000000     0.585430000000    -0.029909   
S45      S      0.156070000000     0.957200000000     0.689290000000    -0.0303843  
S46      S      0.334960000000     0.961610000000     0.687950000000    -0.0350814  
S47      S      0.030380000000     0.835140000000     0.689950000000    -0.0286656  
S48      S      0.963130000000     0.655880000000     0.687080000000    -0.0328827  
S49      S      0.835500000000     0.303420000000     0.460350000000    -0.0341375  
S50      S      0.655120000000     0.187300000000     0.958740000000    -0.0288977  
S51      S      0.685020000000     0.334760000000     0.462960000000    -0.0340473  
S52      S      0.805050000000     0.155410000000     0.960640000000    -0.0348137  
S53      S      0.798920000000     0.452300000000     0.335690000000    -0.0330569  
S54      S      0.782320000000     0.441830000000     0.084720000000    -0.0306263  
S55      S      0.532240000000     0.300170000000     0.335480000000    -0.0321087  
S56      S      0.549810000000     0.206290000000     0.085430000000    -0.0295204  
S57      S      0.656070000000     0.457200000000     0.189290000000    -0.029992   
S58      S      0.834960000000     0.461610000000     0.187950000000    -0.034031   
S59      S      0.530380000000     0.335140000000     0.189950000000    -0.0304825  
S60      S      0.463130000000     0.155880000000     0.187080000000    -0.0306508  
S61      S      0.835500000000     0.303420000000     0.960350000000    -0.0355632  
S62      S      0.655120000000     0.187300000000     0.458740000000    -0.0283893  
S63      S      0.685020000000     0.334760000000     0.962950000000    -0.0355518  
S64      S      0.805050000000     0.155410000000     0.460640000000    -0.0333832  
S65      S      0.798920000000     0.452300000000     0.835690000000    -0.0331998  
S66      S      0.782320000000     0.441830000000     0.584720000000    -0.0319671  
S67      S      0.532240000000     0.300170000000     0.835480000000    -0.0322441  
S68      S      0.549810000000     0.206290000000     0.585430000000    -0.0308906  
S69      S      0.656070000000     0.457200000000     0.689290000000    -0.0302826  
S70      S      0.834960000000     0.461610000000     0.687950000000    -0.0343525  
S71      S      0.530380000000     0.335140000000     0.689950000000    -0.0308439  
S72      S      0.463130000000     0.155880000000     0.687080000000    -0.0309907  
S73      S      0.835500000000     0.803420000000     0.460350000000    -0.034257   
S74      S      0.655120000000     0.687300000000     0.958740000000    -0.0291645  
S75      S      0.685020000000     0.834760000000     0.462960000000    -0.0342416  
S76      S      0.805050000000     0.655400000000     0.960640000000    -0.0353014  
S77      S      0.798920000000     0.952300000000     0.335690000000    -0.0342397  
S78      S      0.782320000000     0.941830000000     0.084720000000    -0.031091   
S79      S      0.532240000000     0.800170000000     0.335480000000    -0.0322699  
S80      S      0.549810000000     0.706290000000     0.085430000000    -0.0297177  
S81      S      0.656070000000     0.957200000000     0.189290000000    -0.0304314  
S82      S      0.834960000000     0.961610000000     0.187950000000    -0.0349289  
S83      S      0.530380000000     0.835140000000     0.189950000000    -0.0306051  
S84      S      0.463130000000     0.655880000000     0.187080000000    -0.0311237  
S85      S      0.835500000000     0.803420000000     0.960350000000    -0.0356833  
S86      S      0.655120000000     0.687300000000     0.458740000000    -0.0286542  
S87      S      0.685020000000     0.834760000000     0.962950000000    -0.0357473  
S88      S      0.805050000000     0.655400000000     0.460640000000    -0.0338674  
S89      S      0.798920000000     0.952300000000     0.835690000000    -0.0343834  
S90      S      0.782320000000     0.941830000000     0.584720000000    -0.0324335  
S91      S      0.532240000000     0.800170000000     0.835480000000    -0.0324053  
S92      S      0.549810000000     0.706290000000     0.585430000000    -0.0310927  
S93      S      0.656070000000     0.957200000000     0.689290000000    -0.0307235  
S94      S      0.834960000000     0.961610000000     0.687950000000    -0.0352524  
S95      S      0.530380000000     0.835140000000     0.689950000000    -0.0309672  
S96      S      0.463130000000     0.655880000000     0.687080000000    -0.0314667  


