data_structure

_audit_creation_method RASPA-1.0
_audit_creation_date 2023-5-23
_audit_author_name 'Poobodin Mano'

_cell_length_a    31.5132
_cell_length_b    31.5126
_cell_length_c    28.0049
_cell_angle_alpha 90.0011
_cell_angle_beta  89.9976
_cell_angle_gamma 89.9958
_cell_volume      27810.6

_symmetry_cell_setting          triclinic
_symmetry_space_group_name_Hall 'P 1'
_symmetry_space_group_name_H-M  'P 1'
_symmetry_Int_Tables_number     1

_symmetry_equiv_pos_as_xyz 'x,y,z'

loop_
_atom_site_label
_atom_site_type_symbol
_atom_site_fract_x
_atom_site_fract_y
_atom_site_fract_z
_atom_site_charge
C1       C      0.424260000000     0.300090000000     0.079320000000     0.433587   
C2       C      0.538800000000     0.299890000000     0.950340000000     0.433494   
C3       C      0.424510000000     0.299920000000     0.950090000000     0.43366    
C4       C      0.538570000000     0.300040000000     0.079610000000     0.433628   
C5       C      0.204570000000     0.519460000000     0.949600000000     0.433566   
C6       C      0.204010000000     0.633980000000     0.078600000000     0.433565   
C7       C      0.204380000000     0.519680000000     0.078840000000     0.433734   
C8       C      0.204180000000     0.633760000000     0.949340000000     0.433527   
C9       C      0.537480000000     0.853020000000     0.949660000000     0.433638   
C10      C      0.422940000000     0.853210000000     0.078640000000     0.433732   
C11      C      0.537230000000     0.853180000000     0.078890000000     0.433698   
C12      C      0.423180000000     0.853070000000     0.949370000000     0.433534   
C13      C      0.757570000000     0.519350000000     0.079640000000     0.433496   
C14      C      0.757350000000     0.633420000000     0.950140000000     0.433498   
C15      C      0.757730000000     0.519130000000     0.950380000000     0.433524   
C16      C      0.757170000000     0.633650000000     0.079380000000     0.433537   
C17      C      0.257180000000     0.019680000000     0.449350000000     0.43347    
C18      C      0.257740000000     0.133750000000     0.578850000000     0.433882   
C19      C      0.257350000000     0.019450000000     0.578590000000     0.433441   
C20      C      0.257550000000     0.133980000000     0.449600000000     0.433682   
C21      C      0.037230000000     0.800080000000     0.449380000000     0.433267   
C22      C      0.923190000000     0.799880000000     0.578920000000     0.43347    
C23      C      0.037480000000     0.799940000000     0.578610000000     0.433378   
C24      C      0.922930000000     0.800050000000     0.449650000000     0.433287   
C25      C      0.704560000000     0.133430000000     0.579630000000     0.433616   
C26      C      0.704000000000     0.019360000000     0.450120000000     0.4334     
C27      C      0.704390000000     0.133650000000     0.450390000000     0.433676   
C28      C      0.704190000000     0.019120000000     0.579380000000     0.43347    
C29      C      0.924510000000     0.353020000000     0.579600000000     0.433446   
C30      C      0.038550000000     0.353230000000     0.450060000000     0.433265   
C31      C      0.924250000000     0.353170000000     0.450370000000     0.433111   
C32      C      0.038810000000     0.353050000000     0.579330000000     0.433475   
C33      C      0.295260000000     0.311230000000     0.211420000000     0.433395   
C34      C      0.167040000000     0.342600000000     0.317280000000     0.433323   
C35      C      0.215440000000     0.391020000000     0.211390000000     0.433414   
C36      C      0.246810000000     0.262820000000     0.317260000000     0.433507   
C37      C      0.746890000000     0.390750000000     0.212270000000     0.433327   
C38      C      0.715520000000     0.262550000000     0.318140000000     0.433369   
C39      C      0.667130000000     0.310970000000     0.212260000000     0.433309   
C40      C      0.795330000000     0.342320000000     0.318140000000     0.433381   
C41      C      0.795770000000     0.341960000000     0.712030000000     0.433365   
C42      C      0.667570000000     0.310610000000     0.817900000000     0.433434   
C43      C      0.715950000000     0.262170000000     0.712030000000     0.433523   
C44      C      0.747310000000     0.390370000000     0.817900000000     0.433334   
C45      C      0.714340000000     0.890840000000     0.317340000000     0.433398   
C46      C      0.745720000000     0.762630000000     0.211490000000     0.433426   
C47      C      0.794090000000     0.811060000000     0.317330000000     0.43337    
C48      C      0.665890000000     0.842410000000     0.211450000000     0.43336    
C49      C      0.794700000000     0.810510000000     0.711700000000     0.433457   
C50      C      0.666490000000     0.841880000000     0.817560000000     0.43357    
C51      C      0.714930000000     0.890280000000     0.711720000000     0.433608   
C52      C      0.746300000000     0.762080000000     0.817590000000     0.433329   
C53      C      0.245790000000     0.890930000000     0.316950000000     0.433406   
C54      C      0.214430000000     0.762730000000     0.211080000000     0.433566   
C55      C      0.165970000000     0.811150000000     0.316950000000     0.433482   
C56      C      0.294170000000     0.842500000000     0.211080000000     0.433295   
C57      C      0.246220000000     0.890560000000     0.710840000000     0.433525   
C58      C      0.214840000000     0.762360000000     0.816710000000     0.433585   
C59      C      0.166410000000     0.810790000000     0.710840000000     0.433638   
C60      C      0.294610000000     0.842140000000     0.816720000000     0.433583   
C61      C      0.216020000000     0.390470000000     0.817490000000     0.4334     
C62      C      0.247400000000     0.262260000000     0.711640000000     0.433422   
C63      C      0.295850000000     0.310690000000     0.817530000000     0.433354   
C64      C      0.167650000000     0.342040000000     0.711650000000     0.433462   
C65      C      0.071960000000     0.318140000000     0.644070000000     0.0329955  
C66      C      0.098210000000     0.384460000000     0.618270000000     0.0326567  
C67      C      0.131860000000     0.380970000000     0.650730000000     0.0327731  
C68      C      0.103500000000     0.316270000000     0.678820000000     0.0321455  
C69      C      0.071510000000     0.318500000000     0.385060000000     0.0329835  
C70      C      0.097770000000     0.384780000000     0.410950000000     0.0327313  
C71      C      0.131330000000     0.381400000000     0.378350000000     0.0326715  
C72      C      0.102950000000     0.316730000000     0.350190000000     0.0321565  
C73      C      0.864800000000     0.384620000000     0.411560000000     0.0324953  
C74      C      0.891090000000     0.318370000000     0.385570000000     0.0327534  
C75      C      0.859520000000     0.316540000000     0.350860000000     0.0319936  
C76      C      0.831120000000     0.381170000000     0.379130000000     0.0325591  
C77      C      0.891480000000     0.318110000000     0.644430000000     0.0327526  
C78      C      0.865160000000     0.384410000000     0.618640000000     0.032486   
C79      C      0.831530000000     0.380910000000     0.651140000000     0.0326464  
C80      C      0.859950000000     0.316230000000     0.679200000000     0.0320421  
C81      C      0.739600000000     0.166420000000     0.644410000000     0.0328607  
C82      C      0.673310000000     0.192830000000     0.618710000000     0.0324937  
C83      C      0.676900000000     0.226450000000     0.651190000000     0.0327178  
C84      C      0.741570000000     0.197950000000     0.679170000000     0.0320545  
C85      C      0.673070000000     0.193140000000     0.411530000000     0.0325914  
C86      C      0.739300000000     0.166750000000     0.385600000000     0.0328124  
C87      C      0.741200000000     0.198310000000     0.350880000000     0.0320366  
C88      C      0.676580000000     0.226800000000     0.379080000000     0.0325751  
C89      C      0.740300000000     0.954900000000     0.350220000000     0.0318921  
C90      C      0.675630000000     0.926600000000     0.378470000000     0.0326283  
C91      C      0.672320000000     0.960170000000     0.411070000000     0.0326811  
C92      C      0.738600000000     0.986350000000     0.385090000000     0.0332795  
C93      C      0.740800000000     0.954400000000     0.678910000000     0.0319382  
C94      C      0.676080000000     0.926120000000     0.650760000000     0.0326134  
C95      C      0.672660000000     0.959780000000     0.618300000000     0.0326869  
C96      C      0.738990000000     0.985940000000     0.644160000000     0.0332661  
C97      C      0.096580000000     0.768690000000     0.410340000000     0.0326607  
C98      C      0.070260000000     0.834990000000     0.384550000000     0.0329483  
C99      C      0.101790000000     0.836880000000     0.349780000000     0.0322378  
C100     C      0.130200000000     0.772190000000     0.377850000000     0.0327058  
C101     C      0.102220000000     0.836570000000     0.678120000000     0.0321737  
C102     C      0.130610000000     0.771940000000     0.649860000000     0.0327891  
C103     C      0.096940000000     0.768490000000     0.617420000000     0.0326221  
C104     C      0.070650000000     0.834740000000     0.643410000000     0.0329835  
C105     C      0.863970000000     0.768330000000     0.618030000000     0.0325333  
C106     C      0.890230000000     0.834610000000     0.643920000000     0.0328043  
C107     C      0.858790000000     0.836380000000     0.678790000000     0.0319392  
C108     C      0.830410000000     0.771710000000     0.650640000000     0.0326715  
C109     C      0.889780000000     0.834960000000     0.384910000000     0.0327615  
C110     C      0.863530000000     0.768650000000     0.410710000000     0.0325712  
C111     C      0.829880000000     0.772130000000     0.378250000000     0.0325525  
C112     C      0.858240000000     0.836840000000     0.350170000000     0.0319854  
C113     C      0.222750000000     0.167160000000     0.384810000000     0.0329013  
C114     C      0.289080000000     0.193330000000     0.410680000000     0.0325967  
C115     C      0.285660000000     0.226990000000     0.378220000000     0.0326509  
C116     C      0.220940000000     0.198700000000     0.350070000000     0.0320256  
C117     C      0.221440000000     0.198200000000     0.678760000000     0.0320049  
C118     C      0.286120000000     0.226510000000     0.650510000000     0.0326174  
C119     C      0.289420000000     0.192940000000     0.617920000000     0.0326412  
C120     C      0.223130000000     0.166760000000     0.643900000000     0.0329028  
C121     C      0.222450000000     0.986360000000     0.643380000000     0.0332867  
C122     C      0.288670000000     0.959970000000     0.617450000000     0.0326447  
C123     C      0.285150000000     0.926310000000     0.649900000000     0.0326634  
C124     C      0.220540000000     0.954790000000     0.678100000000     0.0319987  
C125     C      0.220170000000     0.955160000000     0.349810000000     0.0319656  
C126     C      0.284840000000     0.926650000000     0.377790000000     0.032716   
C127     C      0.288430000000     0.960280000000     0.410280000000     0.0326396  
C128     C      0.222140000000     0.986680000000     0.384570000000     0.0332195  
C129     C      0.785730000000     0.426520000000     0.151280000000     0.0326361  
C130     C      0.721010000000     0.454830000000     0.179380000000     0.0320412  
C131     C      0.722790000000     0.486310000000     0.144550000000     0.0328177  
C132     C      0.789130000000     0.460120000000     0.118730000000     0.0325218  
C133     C      0.788390000000     0.693170000000     0.118280000000     0.0324029  
C134     C      0.722110000000     0.666780000000     0.144040000000     0.0328528  
C135     C      0.720120000000     0.698380000000     0.178730000000     0.0320534  
C136     C      0.784780000000     0.726850000000     0.150680000000     0.0326643  
C137     C      0.720600000000     0.697890000000     0.850430000000     0.0320527  
C138     C      0.785220000000     0.726390000000     0.878570000000     0.0326752  
C139     C      0.788720000000     0.692790000000     0.911100000000     0.0325633  
C140     C      0.722480000000     0.666390000000     0.885230000000     0.0328168  
C141     C      0.723090000000     0.485980000000     0.885470000000     0.0329395  
C142     C      0.789370000000     0.459810000000     0.911500000000     0.0325701  
C143     C      0.786040000000     0.426180000000     0.878980000000     0.0326196  
C144     C      0.721370000000     0.454470000000     0.850690000000     0.0320336  
C145     C      0.570240000000     0.818420000000     0.143830000000     0.0328983  
C146     C      0.596540000000     0.884670000000     0.117900000000     0.0325773  
C147     C      0.630150000000     0.881250000000     0.150430000000     0.0326174  
C148     C      0.601740000000     0.816610000000     0.178630000000     0.0320178  
C149     C      0.329940000000     0.881310000000     0.150060000000     0.0326234  
C150     C      0.358300000000     0.816650000000     0.178270000000     0.0320853  
C151     C      0.389830000000     0.818450000000     0.143500000000     0.032846   
C152     C      0.363570000000     0.884720000000     0.117550000000     0.0325932  
C153     C      0.358720000000     0.816340000000     0.849650000000     0.0320926  
C154     C      0.330330000000     0.881050000000     0.877680000000     0.0327259  
C155     C      0.363910000000     0.884510000000     0.910230000000     0.0326343  
C156     C      0.390190000000     0.818190000000     0.884490000000     0.0329587  
C157     C      0.596950000000     0.884360000000     0.910820000000     0.0326993  
C158     C      0.570670000000     0.818070000000     0.884970000000     0.0328925  
C159     C      0.602270000000     0.816160000000     0.850290000000     0.0320865  
C160     C      0.630650000000     0.880840000000     0.878420000000     0.0326648  
C161     C      0.172370000000     0.693290000000     0.117480000000     0.032665   
C162     C      0.238650000000     0.667120000000     0.143510000000     0.0328834  
C163     C      0.240370000000     0.698640000000     0.178290000000     0.0320817  
C164     C      0.175700000000     0.726930000000     0.150000000000     0.0326587  
C165     C      0.173020000000     0.460320000000     0.117880000000     0.0326059  
C166     C      0.239260000000     0.486720000000     0.143750000000     0.032826   
C167     C      0.241140000000     0.455220000000     0.178550000000     0.0320901  
C168     C      0.176520000000     0.426720000000     0.150410000000     0.0326615  
C169     C      0.173350000000     0.459940000000     0.910710000000     0.03264    
C170     C      0.239630000000     0.486320000000     0.884940000000     0.0329241  
C171     C      0.241620000000     0.454730000000     0.850260000000     0.0321038  
C172     C      0.176960000000     0.426250000000     0.878310000000     0.032772   
C173     C      0.172610000000     0.692990000000     0.910250000000     0.0327097  
C174     C      0.238950000000     0.666800000000     0.884430000000     0.0329205  
C175     C      0.240730000000     0.698270000000     0.849600000000     0.032107   
C176     C      0.176000000000     0.726580000000     0.877700000000     0.0327184  
C177     C      0.331080000000     0.272270000000     0.150560000000     0.0326568  
C178     C      0.359470000000     0.336940000000     0.178690000000     0.0320844  
C179     C      0.391070000000     0.335030000000     0.144020000000     0.0328537  
C180     C      0.364790000000     0.268740000000     0.118160000000     0.0325536  
C181     C      0.597830000000     0.268590000000     0.118750000000     0.0325551  
C182     C      0.571550000000     0.334920000000     0.144490000000     0.0328568  
C183     C      0.603020000000     0.336770000000     0.179330000000     0.0320395  
C184     C      0.631410000000     0.272050000000     0.151310000000     0.0326032  
C185     C      0.571910000000     0.334660000000     0.885480000000     0.0328256  
C186     C      0.598170000000     0.268380000000     0.911430000000     0.03261    
C187     C      0.631800000000     0.271790000000     0.878920000000     0.0326781  
C188     C      0.603430000000     0.336450000000     0.850710000000     0.032118   
C189     C      0.365190000000     0.268430000000     0.911090000000     0.0325625  
C190     C      0.391500000000     0.334690000000     0.885150000000     0.0328879  
C191     C      0.360000000000     0.336500000000     0.850350000000     0.0320712  
C192     C      0.331590000000     0.271860000000     0.878550000000     0.0327314  
H1       H      0.049180000000     0.292370000000     0.642360000000     0.0368011  
H2       H      0.097080000000     0.411910000000     0.594940000000     0.0371172  
H3       H      0.155360000000     0.406090000000     0.651870000000     0.0374171  
H4       H      0.104280000000     0.288670000000     0.701950000000     0.0374244  
H5       H      0.048760000000     0.292700000000     0.386790000000     0.0367786  
H6       H      0.096700000000     0.412180000000     0.434360000000     0.0371076  
H7       H      0.154800000000     0.406540000000     0.377200000000     0.0374341  
H8       H      0.103700000000     0.289180000000     0.326980000000     0.037398   
H9       H      0.865920000000     0.412020000000     0.434960000000     0.0369083  
H10      H      0.913900000000     0.292610000000     0.387190000000     0.0362456  
H11      H      0.858750000000     0.288980000000     0.327670000000     0.0371447  
H12      H      0.807600000000     0.406270000000     0.378070000000     0.0373327  
H13      H      0.914270000000     0.292350000000     0.642700000000     0.0362447  
H14      H      0.866250000000     0.411860000000     0.595310000000     0.0369314  
H15      H      0.808020000000     0.406020000000     0.652280000000     0.0373169  
H16      H      0.859200000000     0.288630000000     0.702340000000     0.0371491  
H17      H      0.765320000000     0.143590000000     0.642640000000     0.0364083  
H18      H      0.645840000000     0.191790000000     0.595410000000     0.0370218  
H19      H      0.651820000000     0.250000000000     0.652370000000     0.0373617  
H20      H      0.769190000000     0.198670000000     0.702280000000     0.0371957  
H21      H      0.645650000000     0.192070000000     0.434900000000     0.0369803  
H22      H      0.765020000000     0.143910000000     0.387250000000     0.036422   
H23      H      0.768780000000     0.199050000000     0.327710000000     0.037192   
H24      H      0.651510000000     0.250350000000     0.378000000000     0.0373899  
H25      H      0.767820000000     0.954120000000     0.326970000000     0.0373003  
H26      H      0.650460000000     0.903150000000     0.377350000000     0.0373852  
H27      H      0.644950000000     0.961280000000     0.434510000000     0.0370226  
H28      H      0.764430000000     0.009070000000     0.386770000000     0.0361236  
H29      H      0.768380000000     0.953590000000     0.702070000000     0.037306   
H30      H      0.650940000000     0.902640000000     0.651880000000     0.0373864  
H31      H      0.645240000000     0.960930000000     0.594940000000     0.0370104  
H32      H      0.764790000000     0.008690000000     0.642480000000     0.0361621  
H33      H      0.095490000000     0.741250000000     0.433670000000     0.0371339  
H34      H      0.047470000000     0.860750000000     0.386290000000     0.0368118  
H35      H      0.102540000000     0.864480000000     0.326640000000     0.0374138  
H36      H      0.153720000000     0.747080000000     0.376700000000     0.0374384  
H37      H      0.102990000000     0.864130000000     0.701320000000     0.0374657  
H38      H      0.154140000000     0.746840000000     0.650910000000     0.0374055  
H39      H      0.095820000000     0.741090000000     0.594020000000     0.0371221  
H40      H      0.047840000000     0.860490000000     0.641790000000     0.0368351  
H41      H      0.865040000000     0.740930000000     0.594620000000     0.0369205  
H42      H      0.912980000000     0.860410000000     0.642190000000     0.036265   
H43      H      0.858040000000     0.863930000000     0.702000000000     0.0371905  
H44      H      0.806940000000     0.746560000000     0.651780000000     0.0373039  
H45      H      0.912560000000     0.860730000000     0.386620000000     0.036275   
H46      H      0.864650000000     0.741200000000     0.434040000000     0.0368964  
H47      H      0.806380000000     0.747010000000     0.377110000000     0.0373402  
H48      H      0.857460000000     0.864440000000     0.327030000000     0.0371526  
H49      H      0.196950000000     0.144420000000     0.386500000000     0.0365434  
H50      H      0.316500000000     0.192170000000     0.434040000000     0.036958   
H51      H      0.310800000000     0.250460000000     0.377100000000     0.0373443  
H52      H      0.193360000000     0.199520000000     0.326910000000     0.0373533  
H53      H      0.193920000000     0.198980000000     0.702010000000     0.0373876  
H54      H      0.311280000000     0.249950000000     0.651620000000     0.0373663  
H55      H      0.316790000000     0.191820000000     0.594470000000     0.0369666  
H56      H      0.197310000000     0.144040000000     0.642210000000     0.036552   
H57      H      0.196720000000     0.009200000000     0.641730000000     0.0363357  
H58      H      0.316090000000     0.961040000000     0.594080000000     0.0370471  
H59      H      0.310230000000     0.902750000000     0.650990000000     0.0374018  
H60      H      0.192960000000     0.954060000000     0.701270000000     0.0374451  
H61      H      0.192550000000     0.954440000000     0.326700000000     0.0374221  
H62      H      0.309920000000     0.903100000000     0.376620000000     0.0373806  
H63      H      0.315900000000     0.961310000000     0.433570000000     0.0370605  
H64      H      0.196420000000     0.009520000000     0.386340000000     0.0363225  
H65      H      0.810890000000     0.403060000000     0.152440000000     0.0371813  
H66      H      0.693430000000     0.454050000000     0.202550000000     0.0372527  
H67      H      0.696980000000     0.509040000000     0.142810000000     0.0364589  
H68      H      0.816550000000     0.461230000000     0.095360000000     0.0367796  
H69      H      0.815860000000     0.692080000000     0.094990000000     0.0368378  
H70      H      0.696400000000     0.643940000000     0.142340000000     0.0364747  
H71      H      0.692490000000     0.699120000000     0.201820000000     0.0372505  
H72      H      0.809850000000     0.750410000000     0.151810000000     0.037203   
H73      H      0.693030000000     0.698600000000     0.827250000000     0.037291   
H74      H      0.810310000000     0.749920000000     0.877440000000     0.0373035  
H75      H      0.816140000000     0.691750000000     0.934480000000     0.0369927  
H76      H      0.696750000000     0.643570000000     0.886940000000     0.0365495  
H77      H      0.697270000000     0.508720000000     0.887100000000     0.036516   
H78      H      0.816740000000     0.460960000000     0.934930000000     0.0369364  
H79      H      0.811190000000     0.402710000000     0.877920000000     0.0372799  
H80      H      0.693840000000     0.453670000000     0.827460000000     0.0373114  
H81      H      0.547460000000     0.792650000000     0.142150000000     0.0364615  
H82      H      0.595460000000     0.912070000000     0.094490000000     0.0369276  
H83      H      0.653650000000     0.906360000000     0.151530000000     0.0373275  
H84      H      0.602490000000     0.789050000000     0.201840000000     0.037284   
H85      H      0.306450000000     0.906440000000     0.151150000000     0.0373843  
H86      H      0.357530000000     0.789100000000     0.201470000000     0.0372707  
H87      H      0.412600000000     0.792670000000     0.141830000000     0.0364931  
H88      H      0.364680000000     0.912120000000     0.094150000000     0.0369423  
H89      H      0.357970000000     0.788740000000     0.826500000000     0.0372746  
H90      H      0.306850000000     0.906190000000     0.876480000000     0.0374617  
H91      H      0.364990000000     0.911960000000     0.933570000000     0.037138   
H92      H      0.412960000000     0.792400000000     0.886260000000     0.0365153  
H93      H      0.595820000000     0.911810000000     0.934140000000     0.0370571  
H94      H      0.547860000000     0.792330000000     0.886630000000     0.0365349  
H95      H      0.603060000000     0.788560000000     0.827160000000     0.0373066  
H96      H      0.654180000000     0.905930000000     0.877320000000     0.0374149  
H97      H      0.145000000000     0.692140000000     0.094050000000     0.037025   
H98      H      0.264470000000     0.644380000000     0.141880000000     0.0364849  
H99      H      0.267900000000     0.699440000000     0.201520000000     0.0372856  
H100     H      0.150550000000     0.750400000000     0.151070000000     0.0374628  
H101     H      0.145610000000     0.461350000000     0.094510000000     0.0370653  
H102     H      0.264990000000     0.509540000000     0.142040000000     0.0365002  
H103     H      0.268710000000     0.454500000000     0.201730000000     0.0372789  
H104     H      0.151430000000     0.403180000000     0.151540000000     0.0374796  
H105     H      0.145880000000     0.461020000000     0.934000000000     0.0372338  
H106     H      0.265340000000     0.509170000000     0.886640000000     0.0365471  
H107     H      0.269250000000     0.453980000000     0.827160000000     0.0373045  
H108     H      0.151890000000     0.402690000000     0.877170000000     0.0375529  
H109     H      0.145190000000     0.691870000000     0.933620000000     0.0372135  
H110     H      0.264760000000     0.644060000000     0.886180000000     0.0365292  
H111     H      0.268310000000     0.699060000000     0.826440000000     0.0372957  
H112     H      0.150850000000     0.750040000000     0.876540000000     0.0375507  
H113     H      0.307560000000     0.247170000000     0.151660000000     0.0373324  
H114     H      0.358690000000     0.364540000000     0.201830000000     0.0372678  
H115     H      0.413880000000     0.360780000000     0.142350000000     0.0364853  
H116     H      0.365910000000     0.241290000000     0.094840000000     0.0369079  
H117     H      0.596750000000     0.241150000000     0.095410000000     0.0368898  
H118     H      0.548790000000     0.360700000000     0.142720000000     0.0364612  
H119     H      0.603770000000     0.364360000000     0.202470000000     0.0372468  
H120     H      0.654890000000     0.246920000000     0.152500000000     0.0372891  
H121     H      0.549140000000     0.360440000000     0.887150000000     0.0365559  
H122     H      0.597050000000     0.240980000000     0.934830000000     0.0370515  
H123     H      0.655290000000     0.246660000000     0.877830000000     0.0373617  
H124     H      0.604200000000     0.364010000000     0.827510000000     0.0372844  
H125     H      0.366270000000     0.241040000000     0.934490000000     0.0371048  
H126     H      0.414280000000     0.360460000000     0.886840000000     0.0365251  
H127     H      0.359250000000     0.364050000000     0.827140000000     0.0373107  
H128     H      0.308090000000     0.246740000000     0.877450000000     0.0374153  
N1       N      0.069350000000     0.352220000000     0.613960000000    -0.180728   
N2       N      0.134240000000     0.346900000000     0.680960000000    -0.180561   
N3       N      0.068970000000     0.352500000000     0.415290000000    -0.18071    
N4       N      0.133660000000     0.347380000000     0.348030000000    -0.180541   
N5       N      0.893690000000     0.352390000000     0.415760000000    -0.180818   
N6       N      0.828750000000     0.347140000000     0.348820000000    -0.180602   
N7       N      0.894030000000     0.352180000000     0.614310000000    -0.180832   
N8       N      0.829190000000     0.346830000000     0.681360000000    -0.180627   
N9       N      0.705500000000     0.163910000000     0.614330000000    -0.180831   
N10      N      0.711010000000     0.228750000000     0.681370000000    -0.180631   
N11      N      0.705250000000     0.164200000000     0.415770000000    -0.180853   
N12      N      0.710640000000     0.229120000000     0.348810000000    -0.180534   
N13      N      0.709610000000     0.924220000000     0.348100000000    -0.180535   
N14      N      0.704640000000     0.988930000000     0.415360000000    -0.180797   
N15      N      0.710130000000     0.923700000000     0.681030000000    -0.180561   
N16      N      0.704940000000     0.988590000000     0.614020000000    -0.180804   
N17      N      0.067710000000     0.800920000000     0.414680000000    -0.18068    
N18      N      0.132550000000     0.806280000000     0.347620000000    -0.180576   
N19      N      0.132990000000     0.805960000000     0.680160000000    -0.180615   
N20      N      0.068050000000     0.800720000000     0.613220000000    -0.180665   
N21      N      0.892770000000     0.800610000000     0.613690000000    -0.180885   
N22      N      0.828080000000     0.805720000000     0.680950000000    -0.180611   
N23      N      0.892390000000     0.800880000000     0.415020000000    -0.180852   
N24      N      0.827510000000     0.806210000000     0.348020000000    -0.180545   
N25      N      0.256800000000     0.164510000000     0.414960000000    -0.180858   
N26      N      0.251610000000     0.229410000000     0.347960000000    -0.180584   
N27      N      0.252140000000     0.228880000000     0.680880000000    -0.180537   
N28      N      0.257100000000     0.164170000000     0.613620000000    -0.180886   
N29      N      0.256490000000     0.988900000000     0.613210000000    -0.180773   
N30      N      0.251100000000     0.923980000000     0.680180000000    -0.180613   
N31      N      0.250730000000     0.924350000000     0.347620000000    -0.180533   
N32      N      0.256250000000     0.989190000000     0.414660000000    -0.180743   
N33      N      0.751690000000     0.424140000000     0.181550000000    -0.180625   
N34      N      0.756830000000     0.488900000000     0.114380000000    -0.180831   
N35      N      0.756220000000     0.664220000000     0.113980000000    -0.180829   
N36      N      0.750670000000     0.729190000000     0.180860000000    -0.180632   
N37      N      0.751180000000     0.728680000000     0.848290000000    -0.180584   
N38      N      0.756520000000     0.663890000000     0.915420000000    -0.180757   
N39      N      0.757060000000     0.488610000000     0.915720000000    -0.180812   
N40      N      0.752050000000     0.423780000000     0.848630000000    -0.180518   
N41      N      0.567690000000     0.852420000000     0.113610000000    -0.180892   
N42      N      0.632490000000     0.847230000000     0.180740000000    -0.180579   
N43      N      0.327580000000     0.847290000000     0.180370000000    -0.180558   
N44      N      0.392420000000     0.852460000000     0.113290000000    -0.1809     
N45      N      0.328000000000     0.846980000000     0.847440000000    -0.18061    
N46      N      0.392740000000     0.852250000000     0.914620000000    -0.18078    
N47      N      0.568060000000     0.852160000000     0.915070000000    -0.180832   
N48      N      0.633040000000     0.846760000000     0.848200000000    -0.180572   
N49      N      0.204670000000     0.664490000000     0.113260000000    -0.180873   
N50      N      0.209690000000     0.729330000000     0.180350000000    -0.180596   
N51      N      0.205220000000     0.489220000000     0.113560000000    -0.180855   
N52      N      0.210570000000     0.424430000000     0.180690000000    -0.180538   
N53      N      0.205520000000     0.488880000000     0.915010000000    -0.180766   
N54      N      0.211070000000     0.423920000000     0.848130000000    -0.180501   
N55      N      0.204910000000     0.664200000000     0.914600000000    -0.180802   
N56      N      0.210050000000     0.728960000000     0.847430000000    -0.180563   
N57      N      0.328700000000     0.306350000000     0.180780000000    -0.180624   
N58      N      0.393690000000     0.300950000000     0.113910000000    -0.180872   
N59      N      0.569000000000     0.300850000000     0.114360000000    -0.180884   
N60      N      0.633740000000     0.306130000000     0.181540000000    -0.180574   
N61      N      0.569320000000     0.300640000000     0.915690000000    -0.1808     
N62      N      0.634160000000     0.305810000000     0.848610000000    -0.180571   
N63      N      0.394050000000     0.300680000000     0.915370000000    -0.18081    
N64      N      0.329250000000     0.305880000000     0.848240000000    -0.18058    
Ni1      Ni     0.481550000000     0.337500000000     0.014790000000     1.02592    
Ni2      Ni     0.481530000000     0.261880000000     0.014900000000     0.983757   
Ni3      Ni     0.241790000000     0.576840000000     0.014150000000     1.02573    
Ni4      Ni     0.166180000000     0.576600000000     0.014030000000     0.984      
Ni5      Ni     0.480210000000     0.891230000000     0.014080000000     0.983879   
Ni6      Ni     0.480190000000     0.815610000000     0.014190000000     1.02575    
Ni7      Ni     0.719950000000     0.576270000000     0.014830000000     1.02584    
Ni8      Ni     0.795560000000     0.576500000000     0.014950000000     0.983372   
Ni9      Ni     0.295560000000     0.076590000000     0.514030000000     0.984569   
Ni10     Ni     0.219940000000     0.076840000000     0.514160000000     1.02704    
Ni11     Ni     0.980180000000     0.837500000000     0.514190000000     1.02382    
Ni12     Ni     0.980220000000     0.761880000000     0.514080000000     0.981826   
Ni13     Ni     0.741800000000     0.076260000000     0.514820000000     1.02658    
Ni14     Ni     0.666180000000     0.076510000000     0.514950000000     0.98474    
Ni15     Ni     0.981520000000     0.391230000000     0.514900000000     0.98181    
Ni16     Ni     0.981560000000     0.315610000000     0.514790000000     1.02379    
Ni17     Ni     0.209420000000     0.305200000000     0.239570000000     1.00556    
Ni18     Ni     0.252860000000     0.348660000000     0.289090000000     1.00521    
Ni19     Ni     0.752950000000     0.304920000000     0.240450000000     1.00526    
Ni20     Ni     0.709490000000     0.348380000000     0.289970000000     1.00502    
Ni21     Ni     0.753390000000     0.304540000000     0.789710000000     1.00446    
Ni22     Ni     0.709940000000     0.348000000000     0.740200000000     1.00605    
Ni23     Ni     0.708270000000     0.805010000000     0.289150000000     1.00499    
Ni24     Ni     0.751720000000     0.848470000000     0.239640000000     1.00531    
Ni25     Ni     0.708880000000     0.804450000000     0.739890000000     1.00519    
Ni26     Ni     0.752320000000     0.847910000000     0.789410000000     1.00536    
Ni27     Ni     0.208350000000     0.848560000000     0.239270000000     1.00461    
Ni28     Ni     0.251800000000     0.805100000000     0.288780000000     1.00608    
Ni29     Ni     0.252250000000     0.804730000000     0.739010000000     1.005      
Ni30     Ni     0.208790000000     0.848190000000     0.788530000000     1.0059     
Ni31     Ni     0.210020000000     0.304640000000     0.789340000000     1.00563    
Ni32     Ni     0.253470000000     0.348090000000     0.739830000000     1.00501    
O1       O      0.439160000000     0.335190000000     0.063360000000    -0.452755   
O2       O      0.523940000000     0.335040000000     0.966230000000    -0.452348   
O3       O      0.439340000000     0.335060000000     0.966020000000    -0.452348   
O4       O      0.523760000000     0.335150000000     0.063570000000    -0.45266    
O5       O      0.525040000000     0.264510000000     0.063070000000    -0.442029   
O6       O      0.438010000000     0.264420000000     0.966730000000    -0.441668   
O7       O      0.525230000000     0.264390000000     0.966920000000    -0.441529   
O8       O      0.437820000000     0.264540000000     0.062860000000    -0.441902   
O9       O      0.239620000000     0.534450000000     0.965580000000    -0.452412   
O10      O      0.239200000000     0.619210000000     0.062730000000    -0.452703   
O11      O      0.239480000000     0.534610000000     0.062920000000    -0.452616   
O12      O      0.239330000000     0.619050000000     0.965380000000    -0.452281   
O13      O      0.168680000000     0.620140000000     0.965880000000    -0.44147    
O14      O      0.168850000000     0.533090000000     0.062200000000    -0.442035   
O15      O      0.168550000000     0.620310000000     0.062020000000    -0.441725   
O16      O      0.168980000000     0.532920000000     0.966060000000    -0.441527   
O17      O      0.523910000000     0.888560000000     0.966120000000    -0.441657   
O18      O      0.436510000000     0.888710000000     0.062060000000    -0.441948   
O19      O      0.523730000000     0.888680000000     0.062250000000    -0.442051   
O20      O      0.436690000000     0.888600000000     0.965910000000    -0.441622   
O21      O      0.437980000000     0.817950000000     0.965400000000    -0.452177   
O22      O      0.522400000000     0.818040000000     0.062970000000    -0.452648   
O23      O      0.437800000000     0.818070000000     0.062760000000    -0.452797   
O24      O      0.522580000000     0.817920000000     0.965630000000    -0.452403   
O25      O      0.722410000000     0.534060000000     0.063600000000    -0.452588   
O26      O      0.722250000000     0.618490000000     0.966060000000    -0.452268   
O27      O      0.722540000000     0.533890000000     0.966250000000    -0.452306   
O28      O      0.722120000000     0.618660000000     0.063400000000    -0.452782   
O29      O      0.792760000000     0.620190000000     0.062920000000    -0.441957   
O30      O      0.793190000000     0.532800000000     0.966960000000    -0.441555   
O31      O      0.792890000000     0.620020000000     0.966780000000    -0.441636   
O32      O      0.793060000000     0.532970000000     0.063110000000    -0.442067   
O33      O      0.292760000000     0.033080000000     0.465870000000    -0.442167   
O34      O      0.293190000000     0.120130000000     0.562200000000    -0.44207    
O35      O      0.292890000000     0.032910000000     0.562020000000    -0.442045   
O36      O      0.293050000000     0.120300000000     0.466060000000    -0.44196    
O37      O      0.222400000000     0.119220000000     0.465590000000    -0.452786   
O38      O      0.222250000000     0.034450000000     0.562730000000    -0.452756   
O39      O      0.222550000000     0.119050000000     0.562930000000    -0.452795   
O40      O      0.222120000000     0.034620000000     0.465390000000    -0.452753   
O41      O      0.022390000000     0.835190000000     0.465410000000    -0.451283   
O42      O      0.937980000000     0.835030000000     0.562980000000    -0.452516   
O43      O      0.022580000000     0.835070000000     0.562750000000    -0.451433   
O44      O      0.937790000000     0.835160000000     0.465630000000    -0.452579   
O45      O      0.936510000000     0.764510000000     0.466120000000    -0.441732   
O46      O      0.023930000000     0.764430000000     0.562040000000    -0.440629   
O47      O      0.936710000000     0.764390000000     0.562270000000    -0.4419     
O48      O      0.023730000000     0.764540000000     0.465910000000    -0.440729   
O49      O      0.739620000000     0.118490000000     0.563590000000    -0.452696   
O50      O      0.739200000000     0.034060000000     0.466050000000    -0.45276    
O51      O      0.739490000000     0.118660000000     0.466250000000    -0.452775   
O52      O      0.739340000000     0.033890000000     0.563400000000    -0.452846   
O53      O      0.668690000000     0.032800000000     0.562920000000    -0.441993   
O54      O      0.668850000000     0.120200000000     0.466970000000    -0.442051   
O55      O      0.668550000000     0.032980000000     0.466780000000    -0.44209    
O56      O      0.668980000000     0.120020000000     0.563110000000    -0.44211    
O57      O      0.938010000000     0.388560000000     0.563070000000    -0.44194    
O58      O      0.025030000000     0.388720000000     0.466710000000    -0.4407     
O59      O      0.937810000000     0.388680000000     0.466940000000    -0.441695   
O60      O      0.025230000000     0.388590000000     0.562860000000    -0.440624   
O61      O      0.023950000000     0.317950000000     0.563350000000    -0.451556   
O62      O      0.939160000000     0.318030000000     0.466240000000    -0.452456   
O63      O      0.023760000000     0.318070000000     0.466000000000    -0.451259   
O64      O      0.939350000000     0.317920000000     0.563580000000    -0.452516   
O65      O      0.259350000000     0.293830000000     0.202040000000    -0.444738   
O66      O      0.163010000000     0.318440000000     0.280710000000    -0.449786   
O67      O      0.198040000000     0.355110000000     0.202040000000    -0.444904   
O68      O      0.222670000000     0.258800000000     0.280690000000    -0.450115   
O69      O      0.264220000000     0.298730000000     0.326630000000    -0.444652   
O70      O      0.239610000000     0.395070000000     0.247940000000    -0.449815   
O71      O      0.202950000000     0.360020000000     0.326620000000    -0.444811   
O72      O      0.299270000000     0.335400000000     0.247980000000    -0.450004   
O73      O      0.764310000000     0.354840000000     0.202910000000    -0.444797   
O74      O      0.739690000000     0.258510000000     0.281590000000    -0.449939   
O75      O      0.703040000000     0.293550000000     0.202920000000    -0.444881   
O76      O      0.799350000000     0.318170000000     0.281570000000    -0.450155   
O77      O      0.759420000000     0.359730000000     0.327520000000    -0.444598   
O78      O      0.663090000000     0.335140000000     0.248820000000    -0.449809   
O79      O      0.698110000000     0.298460000000     0.327500000000    -0.444745   
O80      O      0.722750000000     0.394790000000     0.248850000000    -0.449908   
O81      O      0.799810000000     0.317790000000     0.748590000000    -0.44981    
O82      O      0.703470000000     0.293180000000     0.827250000000    -0.444691   
O83      O      0.740140000000     0.258130000000     0.748560000000    -0.449814   
O84      O      0.764740000000     0.354470000000     0.827270000000    -0.444524   
O85      O      0.723190000000     0.394400000000     0.781310000000    -0.450197   
O86      O      0.698560000000     0.298090000000     0.702680000000    -0.44503    
O87      O      0.663540000000     0.334760000000     0.781330000000    -0.450112   
O88      O      0.759860000000     0.359360000000     0.702670000000    -0.444935   
O89      O      0.696910000000     0.854940000000     0.326700000000    -0.444606   
O90      O      0.721530000000     0.758600000000     0.248020000000    -0.449958   
O91      O      0.758190000000     0.793640000000     0.326690000000    -0.444729   
O92      O      0.661860000000     0.818270000000     0.248030000000    -0.44988    
O93      O      0.701800000000     0.859820000000     0.202090000000    -0.444739   
O94      O      0.798120000000     0.835230000000     0.280780000000    -0.450079   
O95      O      0.763110000000     0.798550000000     0.202120000000    -0.4449     
O96      O      0.738460000000     0.894880000000     0.280750000000    -0.450066   
O97      O      0.758800000000     0.793090000000     0.702360000000    -0.444902   
O98      O      0.662470000000     0.817710000000     0.781000000000    -0.450006   
O99      O      0.697520000000     0.854380000000     0.702350000000    -0.444757   
O100     O      0.722130000000     0.758040000000     0.781040000000    -0.449826   
O101     O      0.763700000000     0.798000000000     0.826940000000    -0.444827   
O102     O      0.739070000000     0.894310000000     0.748290000000    -0.450148   
O103     O      0.702390000000     0.859270000000     0.826940000000    -0.444856   
O104     O      0.798740000000     0.834660000000     0.748270000000    -0.449914   
O105     O      0.221600000000     0.894980000000     0.280420000000    -0.449636   
O106     O      0.197000000000     0.798630000000     0.201720000000    -0.444563   
O107     O      0.161930000000     0.835310000000     0.280390000000    -0.449726   
O108     O      0.258270000000     0.859930000000     0.201730000000    -0.444639   
O109     O      0.298200000000     0.818340000000     0.247650000000    -0.450039   
O110     O      0.201880000000     0.793750000000     0.326320000000    -0.444883   
O111     O      0.238550000000     0.758710000000     0.247670000000    -0.450315   
O112     O      0.263180000000     0.855010000000     0.326300000000    -0.445004   
O113     O      0.263630000000     0.854650000000     0.701490000000    -0.444837   
O114     O      0.238990000000     0.758320000000     0.780140000000    -0.449884   
O115     O      0.202320000000     0.793380000000     0.701470000000    -0.444692   
O116     O      0.298650000000     0.817970000000     0.780170000000    -0.449874   
O117     O      0.258700000000     0.859550000000     0.826060000000    -0.444922   
O118     O      0.162390000000     0.834930000000     0.747410000000    -0.450097   
O119     O      0.197430000000     0.798260000000     0.826070000000    -0.444753   
O120     O      0.222050000000     0.894590000000     0.747400000000    -0.449976   
O121     O      0.198630000000     0.354560000000     0.826860000000    -0.444787   
O122     O      0.223280000000     0.258230000000     0.748230000000    -0.450048   
O123     O      0.259940000000     0.293290000000     0.826890000000    -0.444701   
O124     O      0.163620000000     0.317880000000     0.748200000000    -0.449977   
O125     O      0.203560000000     0.359460000000     0.702290000000    -0.444711   
O126     O      0.299880000000     0.334840000000     0.780950000000    -0.449837   
O127     O      0.264830000000     0.298160000000     0.702280000000    -0.444613   
O128     O      0.240220000000     0.394500000000     0.780960000000    -0.449869   


