data_structure

_audit_creation_method RASPA-1.0
_audit_creation_date 2023-5-23
_audit_author_name 'Poobodin Mano'

_cell_length_a    31.8108
_cell_length_b    31.8053
_cell_length_c    31.7994
_cell_angle_alpha 89.9991
_cell_angle_beta  89.9994
_cell_angle_gamma 89.9994
_cell_volume      32173.1

_symmetry_cell_setting          triclinic
_symmetry_space_group_name_Hall 'P 1'
_symmetry_space_group_name_H-M  'P 1'
_symmetry_Int_Tables_number     1

_symmetry_equiv_pos_as_xyz 'x,y,z'

loop_
_atom_site_label
_atom_site_type_symbol
_atom_site_fract_x
_atom_site_fract_y
_atom_site_fract_z
_atom_site_charge
C1       C      0.589930000000     0.347110000000     0.999800000000     0.436955   
C2       C      0.750510000000     0.347490000000     0.996910000000     0.43615    
C3       C      0.670030000000     0.267250000000     0.996540000000     0.436306   
C4       C      0.670830000000     0.427820000000     0.000610000000     0.430561   
C5       C      0.416100000000     0.340560000000     0.003230000000     0.430681   
C6       C      0.255650000000     0.336000000000     0.007700000000     0.431626   
C7       C      0.337530000000     0.258390000000     0.007890000000     0.432064   
C8       C      0.334910000000     0.418920000000     0.003180000000     0.429735   
C9       C      0.599470000000     0.683120000000     0.008260000000     0.430235   
C10      C      0.759960000000     0.680010000000     0.010860000000     0.432378   
C11      C      0.682440000000     0.762090000000     0.012030000000     0.431564   
C12      C      0.677600000000     0.601630000000     0.006500000000     0.430565   
C13      C      0.425650000000     0.674220000000     0.007410000000     0.429537   
C14      C      0.265290000000     0.672720000000     0.006990000000     0.431993   
C15      C      0.345160000000     0.753180000000     0.011090000000     0.430921   
C16      C      0.344750000000     0.592830000000     0.003800000000     0.429074   
C17      C      0.674090000000     0.001950000000     0.590240000000     0.43062    
C18      C      0.679480000000     0.003770000000     0.750630000000     0.431103   
C19      C      0.756680000000     0.000150000000     0.667380000000     0.430114   
C20      C      0.596390000000     0.004550000000     0.673530000000     0.429698   
C21      C      0.340310000000     0.007050000000     0.602250000000     0.430202   
C22      C      0.344050000000     0.002480000000     0.762600000000     0.432453   
C23      C      0.261940000000     0.003620000000     0.684430000000     0.431181   
C24      C      0.422440000000     0.005440000000     0.680530000000     0.429947   
C25      C      0.339710000000     0.010750000000     0.428220000000     0.430361   
C26      C      0.340250000000     0.012700000000     0.267800000000     0.432367   
C27      C      0.259770000000     0.010220000000     0.347630000000     0.431992   
C28      C      0.420140000000     0.013530000000     0.347260000000     0.430349   
C29      C      0.674510000000     0.006850000000     0.416310000000     0.430236   
C30      C      0.673360000000     0.015960000000     0.256180000000     0.43204    
C31      C      0.754180000000     0.009800000000     0.335740000000     0.431893   
C32      C      0.593860000000     0.013070000000     0.337600000000     0.430198   
C33      C      0.999820000000     0.667590000000     0.598990000000     0.43442    
C34      C      0.007900000000     0.664390000000     0.759320000000     0.430427   
C35      C      0.003600000000     0.746190000000     0.680250000000     0.43123    
C36      C      0.004250000000     0.585840000000     0.677410000000     0.430144   
C37      C      0.006340000000     0.332850000000     0.588340000000     0.42962    
C38      C      0.010000000000     0.331050000000     0.748960000000     0.431871   
C39      C      0.009650000000     0.251660000000     0.668600000000     0.432227   
C40      C      0.006610000000     0.412100000000     0.670010000000     0.430906   
C41      C      0.000040000000     0.597330000000     0.340770000000     0.427755   
C42      C      0.003970000000     0.757660000000     0.348700000000     0.432609   
C43      C      0.006320000000     0.682000000000     0.264600000000     0.430537   
C44      C      0.998760000000     0.673630000000     0.424950000000     0.435554   
C45      C      0.002230000000     0.340010000000     0.414340000000     0.428621   
C46      C      0.997160000000     0.345500000000     0.254040000000     0.436925   
C47      C      0.001230000000     0.262790000000     0.331390000000     0.430108   
C48      C      0.998570000000     0.423240000000     0.336550000000     0.434163   
C49      C      0.998810000000     0.342530000000     0.081500000000     0.435481   
C50      C      0.007610000000     0.335470000000     0.921680000000     0.42982    
C51      C      0.083080000000     0.334860000000     0.006460000000     0.432198   
C52      C      0.923320000000     0.343260000000     0.997610000000     0.433999   
C53      C      0.013400000000     0.681550000000     0.091930000000     0.431917   
C54      C      0.012390000000     0.669370000000     0.932070000000     0.431969   
C55      C      0.092740000000     0.674310000000     0.010850000000     0.433395   
C56      C      0.932670000000     0.676920000000     0.012530000000     0.433201   
C57      C      0.005920000000     0.089980000000     0.335550000000     0.432507   
C58      C      0.007080000000     0.930170000000     0.345840000000     0.433716   
C59      C      0.087000000000     0.010350000000     0.342780000000     0.433147   
C60      C      0.926870000000     0.009200000000     0.338870000000     0.432754   
C61      C      0.929320000000     0.998850000000     0.670270000000     0.435313   
C62      C      0.089120000000     0.998840000000     0.681430000000     0.434719   
C63      C      0.008000000000     0.918870000000     0.677820000000     0.43303    
C64      C      0.010000000000     0.079000000000     0.673820000000     0.433792   
C65      C      0.673220000000     0.094440000000     0.999030000000     0.434684   
C66      C      0.681910000000     0.934700000000     0.008870000000     0.431953   
C67      C      0.679350000000     0.009820000000     0.923530000000     0.431924   
C68      C      0.675360000000     0.018970000000     0.083530000000     0.432536   
C69      C      0.341070000000     0.085720000000     0.012860000000     0.43142    
C70      C      0.344650000000     0.925960000000     0.017180000000     0.430755   
C71      C      0.342010000000     0.008660000000     0.095070000000     0.431514   
C72      C      0.343920000000     0.003300000000     0.935370000000     0.429441   
C73      C      0.029530000000     0.198390000000     0.306170000000     0.0321352  
C74      C      0.975190000000     0.198080000000     0.356820000000     0.0342315  
C75      C      0.977700000000     0.154400000000     0.359190000000     0.0350744  
C76      C      0.029070000000     0.154350000000     0.305530000000     0.0325212  
C77      C      0.021140000000     0.373210000000     0.189370000000     0.0319386  
C78      C      0.970810000000     0.318520000000     0.189940000000     0.0332226  
C79      C      0.973040000000     0.316170000000     0.146130000000     0.0342797  
C80      C      0.019940000000     0.373830000000     0.145500000000     0.0317733  
C81      C      0.961970000000     0.532670000000     0.336970000000     0.0315972  
C82      C      0.036000000000     0.531840000000     0.340660000000     0.0294915  
C83      C      0.035600000000     0.488040000000     0.339770000000     0.0298543  
C84      C      0.961570000000     0.488640000000     0.336030000000     0.0319192  
C85      C      0.032580000000     0.821940000000     0.373760000000     0.0332603  
C86      C      0.977070000000     0.822200000000     0.324320000000     0.0350803  
C87      C      0.979070000000     0.865850000000     0.322300000000     0.0356906  
C88      C      0.031550000000     0.865960000000     0.374940000000     0.0331293  
C89      C      0.039500000000     0.658950000000     0.157600000000     0.0334318  
C90      C      0.985480000000     0.709880000000     0.155060000000     0.034579   
C91      C      0.981770000000     0.707860000000     0.198930000000     0.034765   
C92      C      0.038750000000     0.660260000000     0.201420000000     0.0328274  
C93      C      0.967810000000     0.335820000000     0.524170000000     0.0329767  
C94      C      0.041890000000     0.334180000000     0.522360000000     0.0310807  
C95      C      0.040910000000     0.335970000000     0.478450000000     0.030961   
C96      C      0.966830000000     0.337950000000     0.480310000000     0.0327677  
C97      C      0.982120000000     0.307510000000     0.813710000000     0.0351921  
C98      C      0.039030000000     0.355290000000     0.813160000000     0.0330149  
C99      C      0.036820000000     0.358230000000     0.856980000000     0.03249    
C100     C      0.982810000000     0.307200000000     0.857570000000     0.0340803  
C101     C      0.981600000000     0.187880000000     0.694300000000     0.034805   
C102     C      0.039200000000     0.186630000000     0.647360000000     0.0329969  
C103     C      0.037820000000     0.142700000000     0.647060000000     0.0324074  
C104     C      0.983050000000     0.144150000000     0.697270000000     0.034427   
C105     C      0.035290000000     0.666840000000     0.533480000000     0.0297804  
C106     C      0.961330000000     0.671730000000     0.534340000000     0.0318947  
C107     C      0.961030000000     0.673140000000     0.490200000000     0.0319174  
C108     C      0.035000000000     0.668410000000     0.489830000000     0.0300439  
C109     C      0.967930000000     0.520410000000     0.674520000000     0.0330847  
C110     C      0.042080000000     0.521370000000     0.674810000000     0.0312799  
C111     C      0.042650000000     0.477580000000     0.672590000000     0.0312244  
C112     C      0.968500000000     0.476540000000     0.672550000000     0.0332033  
C113     C      0.029150000000     0.809630000000     0.651500000000     0.0330157  
C114     C      0.979570000000     0.811610000000     0.706820000000     0.0343695  
C115     C      0.982740000000     0.855490000000     0.707860000000     0.0352215  
C116     C      0.028930000000     0.853430000000     0.649670000000     0.0333965  
C117     C      0.038500000000     0.689270000000     0.822360000000     0.0322593  
C118     C      0.983550000000     0.639370000000     0.825260000000     0.0346545  
C119     C      0.986310000000     0.638920000000     0.869170000000     0.034639   
C120     C      0.038280000000     0.691920000000     0.866160000000     0.0331323  
C121     C      0.818210000000     0.033640000000     0.364760000000     0.0329755  
C122     C      0.818980000000     0.984210000000     0.309270000000     0.0340918  
C123     C      0.862910000000     0.985910000000     0.308540000000     0.0348318  
C124     C      0.861970000000     0.031940000000     0.366900000000     0.0334227  
C125     C      0.700610000000     0.043660000000     0.192630000000     0.0325504  
C126     C      0.645530000000     0.993810000000     0.190980000000     0.0344407  
C127     C      0.644660000000     0.996250000000     0.147190000000     0.0347914  
C128     C      0.702670000000     0.042670000000     0.148710000000     0.0333291  
C129     C      0.528950000000     0.050780000000     0.339150000000     0.0312009  
C130     C      0.528870000000     0.976740000000     0.343200000000     0.0324865  
C131     C      0.485180000000     0.976880000000     0.346110000000     0.0325309  
C132     C      0.485030000000     0.050920000000     0.341920000000     0.0311773  
C133     C      0.195990000000     0.981880000000     0.321590000000     0.0338443  
C134     C      0.194600000000     0.037290000000     0.371080000000     0.032795   
C135     C      0.150750000000     0.036120000000     0.371130000000     0.0324738  
C136     C      0.152190000000     0.983590000000     0.318600000000     0.0339323  
C137     C      0.368510000000     0.985320000000     0.160410000000     0.0339838  
C138     C      0.314960000000     0.036810000000     0.158620000000     0.0323851  
C139     C      0.316220000000     0.039570000000     0.202490000000     0.0325034  
C140     C      0.366790000000     0.985150000000     0.204190000000     0.0345004  
C141     C      0.339230000000     0.046600000000     0.494060000000     0.0312009  
C142     C      0.339770000000     0.972460000000     0.492510000000     0.032601   
C143     C      0.340100000000     0.971560000000     0.536380000000     0.03264    
C144     C      0.339050000000     0.045690000000     0.538010000000     0.0311244  
C145     C      0.320970000000     0.973220000000     0.827130000000     0.0339656  
C146     C      0.369090000000     0.029840000000     0.826990000000     0.0330195  
C147     C      0.370410000000     0.028830000000     0.870800000000     0.0323263  
C148     C      0.319200000000     0.975000000000     0.871010000000     0.0337887  
C149     C      0.196240000000     0.029110000000     0.709520000000     0.0327315  
C150     C      0.198570000000     0.974340000000     0.659370000000     0.0344989  
C151     C      0.154830000000     0.974050000000     0.657620000000     0.0331182  
C152     C      0.152300000000     0.025900000000     0.710770000000     0.0310615  
C153     C      0.676280000000     0.965970000000     0.524240000000     0.0327331  
C154     C      0.671020000000     0.039920000000     0.526130000000     0.0312577  
C155     C      0.671330000000     0.041190000000     0.482430000000     0.0311032  
C156     C      0.676610000000     0.967250000000     0.480190000000     0.0327706  
C157     C      0.531620000000     0.042360000000     0.676990000000     0.031108   
C158     C      0.531110000000     0.968220000000     0.675840000000     0.0325827  
C159     C      0.487320000000     0.968390000000     0.677880000000     0.0327013  
C160     C      0.487650000000     0.042530000000     0.678590000000     0.0311174  
C161     C      0.820500000000     0.971170000000     0.691890000000     0.0329215  
C162     C      0.821770000000     0.025320000000     0.641010000000     0.0318584  
C163     C      0.865700000000     0.023290000000     0.640000000000     0.0321177  
C164     C      0.864270000000     0.972220000000     0.693970000000     0.0342182  
C165     C      0.655430000000     0.977740000000     0.816110000000     0.0340111  
C166     C      0.705360000000     0.032700000000     0.814260000000     0.0324108  
C167     C      0.706830000000     0.032760000000     0.858180000000     0.0322851  
C168     C      0.653890000000     0.980690000000     0.859900000000     0.0339451  
C169     C      0.370300000000     0.818720000000     0.986460000000     0.0343446  
C170     C      0.320770000000     0.816540000000     0.041800000000     0.0323106  
C171     C      0.319190000000     0.860450000000     0.042010000000     0.0323845  
C172     C      0.371790000000     0.862470000000     0.989580000000     0.0340979  
C173     C      0.157340000000     0.644290000000     0.032040000000     0.033283   
C174     C      0.156840000000     0.702160000000     0.985380000000     0.0351554  
C175     C      0.200610000000     0.700140000000     0.982470000000     0.0342187  
C176     C      0.201190000000     0.645170000000     0.032510000000     0.0329535  
C177     C      0.534650000000     0.680480000000     0.970660000000     0.0327792  
C178     C      0.534230000000     0.680720000000     0.044820000000     0.0311078  
C179     C      0.490440000000     0.678110000000     0.044670000000     0.0310943  
C180     C      0.490800000000     0.677590000000     0.970510000000     0.0327479  
C181     C      0.659840000000     0.826890000000     0.040860000000     0.0328721  
C182     C      0.709430000000     0.826150000000     0.985520000000     0.0350358  
C183     C      0.711000000000     0.870050000000     0.986290000000     0.0344779  
C184     C      0.658150000000     0.870730000000     0.038520000000     0.0334077  
C185     C      0.825120000000     0.702460000000     0.983030000000     0.0346946  
C186     C      0.823680000000     0.655500000000     0.040630000000     0.0331429  
C187     C      0.867530000000     0.653030000000     0.039600000000     0.032642   
C188     C      0.868930000000     0.703230000000     0.984810000000     0.0343277  
C189     C      0.338800000000     0.528160000000     0.965700000000     0.0327243  
C190     C      0.343260000000     0.527450000000     0.039710000000     0.0309546  
C191     C      0.340120000000     0.483820000000     0.039600000000     0.0309315  
C192     C      0.335890000000     0.484140000000     0.965570000000     0.0327963  
C193     C      0.190950000000     0.358250000000     0.036830000000     0.0329671  
C194     C      0.191580000000     0.308490000000     0.981630000000     0.034916   
C195     C      0.147700000000     0.306300000000     0.983090000000     0.0344535  
C196     C      0.147090000000     0.359320000000     0.035160000000     0.0335016  
C197     C      0.315360000000     0.192650000000     0.981010000000     0.0346639  
C198     C      0.362050000000     0.195280000000     0.038770000000     0.0331947  
C199     C      0.364590000000     0.151440000000     0.038610000000     0.0325174  
C200     C      0.314620000000     0.148840000000     0.983660000000     0.0341405  
C201     C      0.672880000000     0.494080000000     0.965650000000     0.0327694  
C202     C      0.672970000000     0.491580000000     0.039770000000     0.0313257  
C203     C      0.674800000000     0.535400000000     0.041250000000     0.03126    
C204     C      0.674880000000     0.537930000000     0.967130000000     0.0329525  
C205     C      0.481830000000     0.343200000000     0.038880000000     0.0310737  
C206     C      0.480330000000     0.343190000000     0.964720000000     0.0327276  
C207     C      0.524200000000     0.345180000000     0.963910000000     0.033109   
C208     C      0.525650000000     0.344970000000     0.038060000000     0.0315871  
C209     C      0.815640000000     0.370310000000     0.968230000000     0.0338151  
C210     C      0.814370000000     0.322640000000     0.025220000000     0.0320677  
C211     C      0.858080000000     0.320320000000     0.024240000000     0.0318696  
C212     C      0.859670000000     0.371240000000     0.970140000000     0.0332983  
C213     C      0.694990000000     0.203530000000     0.024870000000     0.032196   
C214     C      0.646700000000     0.201980000000     0.968420000000     0.0336723  
C215     C      0.645360000000     0.157960000000     0.970980000000     0.0333397  
C216     C      0.696860000000     0.159820000000     0.024500000000     0.0319412  
H1       H      0.050810000000     0.214880000000     0.285230000000     0.0364087  
H2       H      0.953210000000     0.214200000000     0.377340000000     0.0367831  
H3       H      0.957100000000     0.138120000000     0.380990000000     0.0359619  
H4       H      0.050520000000     0.137980000000     0.284670000000     0.0360299  
H5       H      0.041100000000     0.395660000000     0.205550000000     0.0353271  
H6       H      0.950860000000     0.296410000000     0.206560000000     0.0358735  
H7       H      0.954190000000     0.292780000000     0.129950000000     0.0347006  
H8       H      0.039480000000     0.396330000000     0.128890000000     0.0346451  
H9       H      0.932070000000     0.549000000000     0.335840000000     0.0393135  
H10      H      0.066310000000     0.547330000000     0.342520000000     0.0391817  
H11      H      0.065640000000     0.471970000000     0.340930000000     0.0392269  
H12      H      0.931410000000     0.472880000000     0.334180000000     0.038981   
H13      H      0.054480000000     0.805410000000     0.394010000000     0.0353242  
H14      H      0.954820000000     0.806010000000     0.304140000000     0.0357747  
H15      H      0.957910000000     0.882160000000     0.301080000000     0.0355667  
H16      H      0.053230000000     0.882430000000     0.395490000000     0.0353426  
H17      H      0.062140000000     0.638540000000     0.142260000000     0.0347565  
H18      H      0.964070000000     0.729890000000     0.137620000000     0.0355448  
H19      H      0.958180000000     0.727080000000     0.214330000000     0.0348838  
H20      H      0.060550000000     0.640480000000     0.218670000000     0.0360041  
H21      H      0.938050000000     0.335870000000     0.540810000000     0.0388161  
H22      H      0.072380000000     0.332780000000     0.537540000000     0.0390296  
H23      H      0.070640000000     0.335920000000     0.461770000000     0.0388713  
H24      H      0.936330000000     0.339390000000     0.465180000000     0.0389774  
H25      H      0.959600000000     0.287590000000     0.797580000000     0.0352024  
H26      H      0.061810000000     0.374490000000     0.796560000000     0.0360092  
H27      H      0.058480000000     0.379050000000     0.873130000000     0.0368699  
H28      H      0.960390000000     0.287510000000     0.874100000000     0.0368961  
H29      H      0.958620000000     0.204730000000     0.713060000000     0.0354599  
H30      H      0.062090000000     0.202480000000     0.627650000000     0.035713   
H31      H      0.060140000000     0.125750000000     0.627630000000     0.0363135  
H32      H      0.960690000000     0.128420000000     0.717680000000     0.0364264  
H33      H      0.065610000000     0.664320000000     0.548860000000     0.0395003  
H34      H      0.931500000000     0.673180000000     0.550750000000     0.0389752  
H35      H      0.931000000000     0.675680000000     0.474290000000     0.0388784  
H36      H      0.065140000000     0.666960000000     0.473960000000     0.0395785  
H37      H      0.937590000000     0.535940000000     0.675170000000     0.0390066  
H38      H      0.072010000000     0.537660000000     0.675610000000     0.0391814  
H39      H      0.073020000000     0.462120000000     0.671930000000     0.0391598  
H40      H      0.938600000000     0.460190000000     0.671790000000     0.0389513  
H41      H      0.048370000000     0.792500000000     0.629100000000     0.0360164  
H42      H      0.959460000000     0.796010000000     0.729530000000     0.0355867  
H43      H      0.964340000000     0.872730000000     0.730820000000     0.0351601  
H44      H      0.048380000000     0.868910000000     0.626300000000     0.0353412  
H45      H      0.059800000000     0.709430000000     0.804920000000     0.0367491  
H46      H      0.961100000000     0.618680000000     0.810060000000     0.036584   
H47      H      0.965420000000     0.618470000000     0.886730000000     0.0367306  
H48      H      0.059860000000     0.713580000000     0.881280000000     0.0357741  
H49      H      0.801550000000     0.053300000000     0.387120000000     0.0360865  
H50      H      0.802910000000     0.964680000000     0.286380000000     0.0359123  
H51      H      0.879690000000     0.967070000000     0.285590000000     0.0352378  
H52      H      0.877930000000     0.050820000000     0.390410000000     0.0353751  
H53      H      0.722940000000     0.063000000000     0.209690000000     0.0355406  
H54      H      0.622980000000     0.973600000000     0.206700000000     0.0357009  
H55      H      0.621880000000     0.977330000000     0.130240000000     0.0352425  
H56      H      0.726090000000     0.061770000000     0.132890000000     0.0344083  
H57      H      0.544960000000     0.080760000000     0.336520000000     0.038987   
H58      H      0.544640000000     0.946520000000     0.343910000000     0.0391298  
H59      H      0.469440000000     0.946760000000     0.348750000000     0.039049   
H60      H      0.469000000000     0.080990000000     0.341190000000     0.0389917  
H61      H      0.212880000000     0.959820000000     0.301800000000     0.0367353  
H62      H      0.210330000000     0.059340000000     0.391820000000     0.0365704  
H63      H      0.133890000000     0.057700000000     0.391480000000     0.0368523  
H64      H      0.136430000000     0.962210000000     0.297190000000     0.0369952  
H65      H      0.389900000000     0.963760000000     0.144860000000     0.0371145  
H66      H      0.293760000000     0.057340000000     0.141520000000     0.0368192  
H67      H      0.295400000000     0.061560000000     0.218170000000     0.0363255  
H68      H      0.387360000000     0.963880000000     0.221180000000     0.0365685  
H69      H      0.338900000000     0.077050000000     0.478730000000     0.0389261  
H70      H      0.340050000000     0.942650000000     0.475980000000     0.0388936  
H71      H      0.340490000000     0.941060000000     0.551620000000     0.0388451  
H72      H      0.338760000000     0.075450000000     0.554630000000     0.0388819  
H73      H      0.301250000000     0.950660000000     0.810840000000     0.0366158  
H74      H      0.388780000000     0.052380000000     0.810610000000     0.0366949  
H75      H      0.390620000000     0.051040000000     0.887000000000     0.0374108  
H76      H      0.298740000000     0.953220000000     0.887460000000     0.0370185  
H77      H      0.211690000000     0.051510000000     0.730080000000     0.0360226  
H78      H      0.215720000000     0.953130000000     0.638880000000     0.0367083  
H79      H      0.139580000000     0.952320000000     0.636180000000     0.036074   
H80      H      0.134900000000     0.046580000000     0.731570000000     0.0362518  
H81      H      0.678370000000     0.935560000000     0.539510000000     0.0389382  
H82      H      0.668780000000     0.069640000000     0.542690000000     0.0394402  
H83      H      0.669270000000     0.071800000000     0.467550000000     0.0393095  
H84      H      0.678860000000     0.937760000000     0.463250000000     0.0390192  
H85      H      0.547800000000     0.072360000000     0.676730000000     0.0387334  
H86      H      0.546740000000     0.937950000000     0.674800000000     0.0392493  
H87      H      0.471330000000     0.938280000000     0.678160000000     0.0390333  
H88      H      0.471820000000     0.072700000000     0.679600000000     0.0388868  
H89      H      0.803720000000     0.949910000000     0.712640000000     0.0369413  
H90      H      0.805880000000     0.047140000000     0.620160000000     0.0363079  
H91      H      0.882660000000     0.044110000000     0.618970000000     0.0359546  
H92      H      0.880040000000     0.951280000000     0.715810000000     0.0356362  
H93      H      0.634910000000     0.955360000000     0.800550000000     0.0368237  
H94      H      0.725730000000     0.054090000000     0.797190000000     0.0366714  
H95      H      0.727790000000     0.054690000000     0.873780000000     0.0370477  
H96      H      0.632740000000     0.960030000000     0.876920000000     0.0373044  
H97      H      0.390560000000     0.803280000000     0.963770000000     0.036697   
H98      H      0.300480000000     0.799340000000     0.063150000000     0.0366805  
H99      H      0.298180000000     0.875980000000     0.063950000000     0.0368631  
H100     H      0.392590000000     0.879580000000     0.968640000000     0.0374293  
H101     H      0.141200000000     0.621480000000     0.051610000000     0.0348269  
H102     H      0.140240000000     0.725410000000     0.966740000000     0.0352447  
H103     H      0.216760000000     0.722410000000     0.962290000000     0.0359489  
H104     H      0.217790000000     0.622620000000     0.052000000000     0.0356473  
H105     H      0.550750000000     0.681220000000     0.940620000000     0.0387731  
H106     H      0.549920000000     0.681780000000     0.075070000000     0.039151   
H107     H      0.474420000000     0.677350000000     0.074760000000     0.038964   
H108     H      0.475030000000     0.676490000000     0.940310000000     0.0390064  
H109     H      0.639430000000     0.810820000000     0.062970000000     0.0354287  
H110     H      0.729530000000     0.809440000000     0.963600000000     0.0348607  
H111     H      0.731740000000     0.886110000000     0.964480000000     0.03607    
H112     H      0.636900000000     0.887430000000     0.059340000000     0.0348814  
H113     H      0.809380000000     0.722010000000     0.959930000000     0.0355332  
H114     H      0.806740000000     0.636570000000     0.063400000000     0.0363226  
H115     H      0.883320000000     0.632800000000     0.062070000000     0.037017   
H116     H      0.885810000000     0.722830000000     0.962560000000     0.0369668  
H117     H      0.338020000000     0.544460000000     0.935770000000     0.0388058  
H118     H      0.346050000000     0.542910000000     0.069980000000     0.0392322  
H119     H      0.340870000000     0.467950000000     0.069770000000     0.0392193  
H120     H      0.333170000000     0.468260000000     0.935530000000     0.0387554  
H121     H      0.207020000000     0.378930000000     0.058680000000     0.0354206  
H122     H      0.208250000000     0.288490000000     0.959580000000     0.0349281  
H123     H      0.131580000000     0.285300000000     0.961590000000     0.0356558  
H124     H      0.130430000000     0.380440000000     0.056150000000     0.0344864  
H125     H      0.295890000000     0.207940000000     0.957540000000     0.0353333  
H126     H      0.380850000000     0.212670000000     0.061300000000     0.0362673  
H127     H      0.384750000000     0.136150000000     0.061490000000     0.0368859  
H128     H      0.295140000000     0.131450000000     0.961710000000     0.036571   
H129     H      0.672230000000     0.479170000000     0.934990000000     0.0389191  
H130     H      0.672330000000     0.474680000000     0.069380000000     0.0392985  
H131     H      0.675470000000     0.550250000000     0.071940000000     0.0391737  
H132     H      0.675560000000     0.554880000000     0.937550000000     0.0389441  
H133     H      0.466550000000     0.342510000000     0.069350000000     0.0392592  
H134     H      0.463800000000     0.342570000000     0.934910000000     0.0388812  
H135     H      0.539530000000     0.345860000000     0.933460000000     0.0388269  
H136     H      0.542130000000     0.345550000000     0.067910000000     0.0389966  
H137     H      0.799750000000     0.390090000000     0.945440000000     0.0358131  
H138     H      0.797580000000     0.303350000000     0.047810000000     0.0353359  
H139     H      0.873740000000     0.299750000000     0.046510000000     0.0357353  
H140     H      0.876710000000     0.391080000000     0.948250000000     0.0362327  
H141     H      0.714650000000     0.220430000000     0.047070000000     0.0352789  
H142     H      0.626810000000     0.217800000000     0.945680000000     0.0354823  
H143     H      0.625150000000     0.140790000000     0.949540000000     0.0357476  
H144     H      0.717540000000     0.144280000000     0.046770000000     0.035695   
N1       N      0.001990000000     0.219910000000     0.331290000000    -0.181631   
N2       N      0.004120000000     0.132740000000     0.333080000000    -0.182136   
N3       N      0.996030000000     0.346030000000     0.211250000000    -0.180613   
N4       N      0.997050000000     0.344320000000     0.124230000000    -0.180525   
N5       N      0.999230000000     0.554200000000     0.339360000000    -0.177441   
N6       N      0.998430000000     0.466390000000     0.337490000000    -0.179137   
N7       N      0.004670000000     0.800460000000     0.349060000000    -0.182223   
N8       N      0.005740000000     0.887480000000     0.348140000000    -0.182464   
N9       N      0.013260000000     0.684160000000     0.134700000000    -0.181913   
N10      N      0.008900000000     0.683510000000     0.221810000000    -0.181586   
N11      N      0.005340000000     0.334140000000     0.545200000000    -0.180723   
N12      N      0.003380000000     0.338030000000     0.457460000000    -0.180446   
N13      N      0.010700000000     0.331010000000     0.791800000000    -0.182187   
N14      N      0.009220000000     0.333580000000     0.878900000000    -0.181591   
N15      N      0.010260000000     0.208860000000     0.670050000000    -0.18231    
N16      N      0.010350000000     0.121810000000     0.672750000000    -0.182529   
N17      N      0.998560000000     0.668670000000     0.555860000000    -0.179124   
N18      N      0.997980000000     0.671670000000     0.468070000000    -0.179293   
N19      N      0.004730000000     0.542770000000     0.675700000000    -0.180996   
N20      N      0.005880000000     0.455180000000     0.671570000000    -0.181132   
N21      N      0.003800000000     0.789010000000     0.679450000000    -0.181919   
N22      N      0.006670000000     0.876070000000     0.678610000000    -0.182243   
N23      N      0.010110000000     0.664120000000     0.802150000000    -0.181637   
N24      N      0.012580000000     0.666340000000     0.889310000000    -0.181909   
N25      N      0.796980000000     0.009040000000     0.336600000000    -0.181765   
N26      N      0.884060000000     0.009000000000     0.338040000000    -0.18186    
N27      N      0.672990000000     0.018110000000     0.213410000000    -0.181782   
N28      N      0.674130000000     0.019570000000     0.126330000000    -0.182013   
N29      N      0.550790000000     0.013640000000     0.339770000000    -0.180644   
N30      N      0.463220000000     0.013920000000     0.345350000000    -0.180684   
N31      N      0.216930000000     0.009570000000     0.346960000000    -0.181862   
N32      N      0.129830000000     0.010080000000     0.344070000000    -0.182036   
N33      N      0.341740000000     0.010270000000     0.137890000000    -0.181664   
N34      N      0.341220000000     0.012780000000     0.224970000000    -0.182024   
N35      N      0.339570000000     0.009970000000     0.471360000000    -0.180602   
N36      N      0.339730000000     0.008150000000     0.559120000000    -0.180612   
N37      N      0.344920000000     0.001570000000     0.805420000000    -0.182084   
N38      N      0.344520000000     0.002300000000     0.892540000000    -0.181381   
N39      N      0.219070000000     0.002640000000     0.684430000000    -0.18169    
N40      N      0.131920000000     0.999280000000     0.683820000000    -0.180228   
N41      N      0.673640000000     0.002390000000     0.547110000000    -0.180677   
N42      N      0.674220000000     0.004930000000     0.459400000000    -0.180651   
N43      N      0.553280000000     0.005170000000     0.675430000000    -0.180343   
N44      N      0.465560000000     0.005510000000     0.679080000000    -0.180498   
N45      N      0.799500000000     0.998780000000     0.666540000000    -0.179088   
N46      N      0.886590000000     0.997870000000     0.667640000000    -0.180608   
N47      N      0.680240000000     0.004620000000     0.793510000000    -0.181618   
N48      N      0.680170000000     0.007640000000     0.880700000000    -0.181641   
N49      N      0.345430000000     0.795990000000     0.013170000000    -0.181834   
N50      N      0.345360000000     0.883110000000     0.016490000000    -0.181615   
N51      N      0.135510000000     0.673620000000     0.009470000000    -0.182338   
N52      N      0.222490000000     0.672510000000     0.007060000000    -0.181988   
N53      N      0.556350000000     0.681780000000     0.007830000000    -0.180732   
N54      N      0.468730000000     0.676410000000     0.007530000000    -0.180606   
N55      N      0.684200000000     0.804880000000     0.013140000000    -0.181794   
N56      N      0.684090000000     0.892000000000     0.011570000000    -0.181759   
N57      N      0.802770000000     0.679350000000     0.011590000000    -0.182152   
N58      N      0.889850000000     0.677690000000     0.012350000000    -0.182084   
N59      N      0.342540000000     0.549720000000     0.002840000000    -0.180361   
N60      N      0.336630000000     0.462060000000     0.002590000000    -0.180522   
N61      N      0.212880000000     0.334080000000     0.008900000000    -0.181838   
N62      N      0.125790000000     0.332970000000     0.008670000000    -0.181991   
N63      N      0.338300000000     0.215580000000     0.009240000000    -0.182089   
N64      N      0.340080000000     0.128520000000     0.011720000000    -0.181793   
N65      N      0.672070000000     0.470920000000     0.001980000000    -0.1808     
N66      N      0.675850000000     0.558560000000     0.004940000000    -0.180861   
N67      N      0.459180000000     0.342220000000     0.002220000000    -0.180823   
N68      N      0.546830000000     0.345920000000     0.000590000000    -0.182506   
N69      N      0.793360000000     0.346770000000     0.996530000000    -0.180491   
N70      N      0.880520000000     0.345280000000     0.997360000000    -0.179959   
N71      N      0.670720000000     0.224400000000     0.996200000000    -0.180525   
N72      N      0.671370000000     0.137250000000     0.998260000000    -0.180133   
Ni1      Ni     0.669370000000     0.348640000000     0.960890000000     0.996044   
Ni2      Ni     0.671210000000     0.346280000000     0.035740000000     1.01471    
Ni3      Ni     0.337060000000     0.339790000000     0.042800000000     1.01063    
Ni4      Ni     0.334500000000     0.337210000000     0.967980000000     0.998512   
Ni5      Ni     0.678950000000     0.680450000000     0.046830000000     1.00306    
Ni6      Ni     0.680760000000     0.683450000000     0.972000000000     1.00651    
Ni7      Ni     0.345720000000     0.675040000000     0.969910000000     0.995458   
Ni8      Ni     0.344910000000     0.671240000000     0.044490000000     1.00814    
Ni9      Ni     0.677930000000     0.039890000000     0.669820000000     1.00214    
Ni10     Ni     0.675410000000     0.965270000000     0.671190000000     1.00213    
Ni11     Ni     0.342170000000     0.967400000000     0.681230000000     1.01105    
Ni12     Ni     0.342020000000     0.042070000000     0.683890000000     0.994497   
Ni13     Ni     0.338820000000     0.049230000000     0.348590000000     0.994655   
Ni14     Ni     0.340870000000     0.974570000000     0.347150000000     1.01265    
Ni15     Ni     0.673150000000     0.974160000000     0.333870000000     1.00198    
Ni16     Ni     0.675100000000     0.048650000000     0.338400000000     1.00321    
Ni17     Ni     0.966440000000     0.665640000000     0.681320000000     0.990482   
Ni18     Ni     0.040980000000     0.666540000000     0.677190000000     1.0147     
Ni19     Ni     0.045600000000     0.332740000000     0.667670000000     1.0004     
Ni20     Ni     0.970770000000     0.330830000000     0.669900000000     1.01061    
Ni21     Ni     0.964730000000     0.678850000000     0.342800000000     0.99473    
Ni22     Ni     0.039470000000     0.676470000000     0.346570000000     1.01412    
Ni23     Ni     0.962470000000     0.342020000000     0.335460000000     1.00217    
Ni24     Ni     0.037060000000     0.343780000000     0.332600000000     1.00144    
Ni25     Ni     0.000680000000     0.301780000000     0.003110000000     1.0015     
Ni26     Ni     0.005790000000     0.376340000000     0.000100000000     0.991809   
Ni27     Ni     0.012130000000     0.638320000000     0.015350000000     0.999031   
Ni28     Ni     0.013290000000     0.712790000000     0.008620000000     0.999305   
Ni29     Ni     0.006060000000     0.012860000000     0.378020000000     1.00201    
Ni30     Ni     0.007830000000     0.007180000000     0.303440000000     0.999166   
Ni31     Ni     0.012290000000     0.998060000000     0.638610000000     1.00632    
Ni32     Ni     0.006090000000     0.999880000000     0.713140000000     1.00296    
Ni33     Ni     0.714730000000     0.017120000000     0.004320000000     1.00125    
Ni34     Ni     0.640150000000     0.011970000000     0.002770000000     0.994924   
Ni35     Ni     0.305770000000     0.004980000000     0.014800000000     0.989192   
Ni36     Ni     0.379970000000     0.006750000000     0.015650000000     0.997877   
O1       O      0.609350000000     0.348490000000     0.964470000000    -0.447792   
O2       O      0.729920000000     0.349400000000     0.962230000000    -0.443692   
O3       O      0.668390000000     0.287960000000     0.961890000000    -0.442434   
O4       O      0.669670000000     0.408750000000     0.965040000000    -0.444226   
O5       O      0.671330000000     0.406540000000     0.034910000000    -0.449134   
O6       O      0.671820000000     0.286510000000     0.031860000000    -0.453023   
O7       O      0.731110000000     0.345530000000     0.032180000000    -0.451587   
O8       O      0.610870000000     0.346340000000     0.034340000000    -0.450321   
O9       O      0.396920000000     0.340920000000     0.038690000000    -0.449706   
O10      O      0.276630000000     0.339180000000     0.042050000000    -0.446092   
O11      O      0.339020000000     0.279530000000     0.042220000000    -0.447584   
O12      O      0.336010000000     0.399550000000     0.038540000000    -0.451015   
O13      O      0.333300000000     0.397860000000     0.968700000000    -0.44115    
O14      O      0.335260000000     0.277170000000     0.972280000000    -0.444677   
O15      O      0.274560000000     0.334730000000     0.972140000000    -0.444887   
O16      O      0.394930000000     0.338900000000     0.968830000000    -0.44364    
O17      O      0.619080000000     0.681890000000     0.043450000000    -0.449302   
O18      O      0.739250000000     0.678230000000     0.045440000000    -0.446328   
O19      O      0.679790000000     0.741000000000     0.046380000000    -0.443969   
O20      O      0.677500000000     0.620490000000     0.042180000000    -0.447357   
O21      O      0.679100000000     0.623120000000     0.972330000000    -0.445662   
O22      O      0.683240000000     0.743280000000     0.976420000000    -0.446905   
O23      O      0.740750000000     0.682660000000     0.975520000000    -0.446421   
O24      O      0.620250000000     0.684580000000     0.973590000000    -0.443626   
O25      O      0.405720000000     0.672100000000     0.972400000000    -0.444564   
O26      O      0.285420000000     0.678800000000     0.972530000000    -0.442562   
O27      O      0.349600000000     0.734900000000     0.975410000000    -0.443478   
O28      O      0.342420000000     0.614420000000     0.969680000000    -0.439973   
O29      O      0.348230000000     0.611670000000     0.039290000000    -0.450311   
O30      O      0.340650000000     0.731460000000     0.044780000000    -0.446449   
O31      O      0.285100000000     0.666980000000     0.041570000000    -0.448548   
O32      O      0.405160000000     0.675040000000     0.042250000000    -0.446324   
O33      O      0.672510000000     0.036850000000     0.610340000000    -0.450892   
O34      O      0.684010000000     0.038040000000     0.729840000000    -0.446197   
O35      O      0.737720000000     0.035520000000     0.663580000000    -0.444877   
O36      O      0.617550000000     0.038980000000     0.675190000000    -0.443083   
O37      O      0.615620000000     0.969280000000     0.670200000000    -0.447804   
O38      O      0.735680000000     0.966150000000     0.672920000000    -0.444909   
O39      O      0.673660000000     0.968820000000     0.731360000000    -0.444174   
O40      O      0.676600000000     0.967070000000     0.610550000000    -0.441546   
O41      O      0.343550000000     0.971650000000     0.621330000000    -0.447821   
O42      O      0.339910000000     0.968210000000     0.741670000000    -0.444829   
O43      O      0.282330000000     0.969310000000     0.679090000000    -0.448882   
O44      O      0.402370000000     0.970440000000     0.682670000000    -0.446772   
O45      O      0.402090000000     0.040270000000     0.679540000000    -0.444608   
O46      O      0.281610000000     0.038620000000     0.688940000000    -0.441447   
O47      O      0.347160000000     0.037830000000     0.743550000000    -0.447444   
O48      O      0.337840000000     0.041290000000     0.623570000000    -0.444615   
O49      O      0.341810000000     0.045990000000     0.408660000000    -0.445347   
O50      O      0.335120000000     0.047210000000     0.288140000000    -0.443003   
O51      O      0.278970000000     0.045330000000     0.352320000000    -0.446459   
O52      O      0.399230000000     0.048060000000     0.345340000000    -0.443787   
O53      O      0.400640000000     0.978340000000     0.350170000000    -0.448867   
O54      O      0.280580000000     0.975930000000     0.343190000000    -0.445306   
O55      O      0.344810000000     0.977860000000     0.287450000000    -0.44947    
O56      O      0.337750000000     0.976210000000     0.407370000000    -0.446988   
O57      O      0.677120000000     0.973090000000     0.394260000000    -0.442782   
O58      O      0.668330000000     0.980290000000     0.274230000000    -0.44571    
O59      O      0.733460000000     0.975780000000     0.329210000000    -0.442765   
O60      O      0.613410000000     0.977790000000     0.338290000000    -0.447162   
O61      O      0.614700000000     0.047620000000     0.335540000000    -0.444872   
O62      O      0.734910000000     0.044590000000     0.342090000000    -0.447756   
O63      O      0.678870000000     0.049410000000     0.278040000000    -0.444997   
O64      O      0.671990000000     0.042710000000     0.397980000000    -0.449316   
O65      O      0.965840000000     0.670000000000     0.620770000000    -0.441356   
O66      O      0.972150000000     0.660420000000     0.741130000000    -0.442085   
O67      O      0.969110000000     0.726050000000     0.686260000000    -0.439764   
O68      O      0.969120000000     0.605690000000     0.676770000000    -0.443517   
O69      O      0.038970000000     0.606360000000     0.679310000000    -0.44883    
O70      O      0.038080000000     0.726330000000     0.674230000000    -0.45046    
O71      O      0.041480000000     0.669380000000     0.737500000000    -0.447024   
O72      O      0.035430000000     0.664380000000     0.617630000000    -0.453827   
O73      O      0.041760000000     0.333170000000     0.607630000000    -0.446997   
O74      O      0.044530000000     0.333080000000     0.728160000000    -0.444611   
O75      O      0.044290000000     0.272300000000     0.666590000000    -0.444976   
O76      O      0.041920000000     0.392690000000     0.668390000000    -0.448259   
O77      O      0.972070000000     0.391170000000     0.670620000000    -0.446001   
O78      O      0.974340000000     0.270950000000     0.670100000000    -0.448344   
O79      O      0.974600000000     0.329390000000     0.729820000000    -0.447268   
O80      O      0.971900000000     0.331720000000     0.609460000000    -0.445024   
O81      O      0.965610000000     0.618440000000     0.339920000000    -0.442254   
O82      O      0.968670000000     0.738620000000     0.345140000000    -0.446763   
O83      O      0.970250000000     0.682720000000     0.282690000000    -0.440769   
O84      O      0.964500000000     0.675830000000     0.403560000000    -0.441052   
O85      O      0.034290000000     0.673410000000     0.405990000000    -0.45599    
O86      O      0.040090000000     0.678930000000     0.286410000000    -0.448924   
O87      O      0.038490000000     0.736840000000     0.350480000000    -0.44586    
O88      O      0.035400000000     0.616600000000     0.343310000000    -0.449167   
O89      O      0.966780000000     0.343240000000     0.395380000000    -0.445863   
O90      O      0.963180000000     0.339920000000     0.275050000000    -0.445864   
O91      O      0.966310000000     0.282030000000     0.337380000000    -0.44506    
O92      O      0.963890000000     0.402600000000     0.334100000000    -0.44388    
O93      O      0.033660000000     0.403430000000     0.337930000000    -0.450779   
O94      O      0.035460000000     0.283610000000     0.326600000000    -0.444271   
O95      O      0.032460000000     0.349830000000     0.272940000000    -0.448973   
O96      O      0.036470000000     0.338470000000     0.392890000000    -0.444276   
O97      O      0.000010000000     0.306650000000     0.063120000000    -0.448456   
O98      O      0.999980000000     0.302020000000     0.942870000000    -0.442372   
O99      O      0.061350000000     0.301040000000     0.002310000000    -0.443594   
O100     O      0.941130000000     0.307720000000     0.003890000000    -0.449457   
O101     O      0.945440000000     0.376750000000     0.992780000000    -0.43847    
O102     O      0.064980000000     0.370780000000     0.007870000000    -0.446704   
O103     O      0.013050000000     0.370770000000     0.940420000000    -0.442425   
O104     O      0.999910000000     0.376700000000     0.060070000000    -0.443666   
O105     O      0.016960000000     0.645380000000     0.074650000000    -0.448079   
O106     O      0.007510000000     0.636350000000     0.954850000000    -0.442029   
O107     O      0.072240000000     0.639580000000     0.011980000000    -0.446214   
O108     O      0.952100000000     0.642330000000     0.019780000000    -0.444154   
O109     O      0.953230000000     0.710780000000     0.005090000000    -0.446016   
O110     O      0.073340000000     0.709660000000     0.010750000000    -0.446901   
O111     O      0.017040000000     0.705510000000     0.949200000000    -0.446489   
O112     O      0.009470000000     0.714820000000     0.069290000000    -0.441826   
O113     O      0.001570000000     0.072240000000     0.371440000000    -0.449307   
O114     O      0.010500000000     0.952350000000     0.379430000000    -0.442438   
O115     O      0.066090000000     0.017080000000     0.376600000000    -0.447289   
O116     O      0.946070000000     0.009750000000     0.374340000000    -0.445434   
O117     O      0.947590000000     0.009180000000     0.304240000000    -0.444083   
O118     O      0.067910000000     0.003740000000     0.307870000000    -0.445827   
O119     O      0.004010000000     0.947830000000     0.309800000000    -0.448944   
O120     O      0.011280000000     0.067790000000     0.302210000000    -0.443037   
O121     O      0.951780000000     0.002460000000     0.636860000000    -0.444146   
O122     O      0.071620000000     0.993760000000     0.645530000000    -0.449275   
O123     O      0.009000000000     0.938070000000     0.642340000000    -0.447215   
O124     O      0.016730000000     0.058120000000     0.640000000000    -0.448505   
O125     O      0.002680000000     0.059910000000     0.708600000000    -0.447968   
O126     O      0.008090000000     0.939620000000     0.712430000000    -0.445875   
O127     O      0.066680000000     0.003750000000     0.714690000000    -0.444947   
O128     O      0.946730000000     0.995850000000     0.706430000000    -0.447773   
O129     O      0.708820000000     0.076630000000     0.004820000000    -0.451207   
O130     O      0.715560000000     0.956490000000     0.003900000000    -0.442943   
O131     O      0.713290000000     0.017480000000     0.943950000000    -0.44408    
O132     O      0.710950000000     0.018020000000     0.064530000000    -0.445094   
O133     O      0.640880000000     0.018020000000     0.062630000000    -0.446451   
O134     O      0.644500000000     0.004520000000     0.943110000000    -0.444757   
O135     O      0.645960000000     0.952730000000     0.010730000000    -0.445187   
O136     O      0.639600000000     0.072330000000     0.995120000000    -0.439669   
O137     O      0.307310000000     0.064680000000     0.006150000000    -0.443531   
O138     O      0.309830000000     0.945370000000     0.023390000000    -0.441792   
O139     O      0.307700000000     0.013830000000     0.074490000000    -0.442879   
O140     O      0.309480000000     0.996340000000     0.955180000000    -0.439454   
O141     O      0.377760000000     0.011660000000     0.955660000000    -0.443962   
O142     O      0.376630000000     0.001770000000     0.075570000000    -0.445932   
O143     O      0.378590000000     0.946690000000     0.010470000000    -0.444224   
O144     O      0.375740000000     0.066680000000     0.020680000000    -0.444618   


