data_structure

_audit_creation_method RASPA-1.0
_audit_creation_date 2023-5-19
_audit_author_name 'Poobodin Mano'

_cell_length_a    42.4009
_cell_length_b    42.3739
_cell_length_c    42.4015
_cell_angle_alpha 90
_cell_angle_beta  90
_cell_angle_gamma 90
_cell_volume      76182.4

_symmetry_cell_setting          triclinic
_symmetry_space_group_name_Hall 'P 1'
_symmetry_space_group_name_H-M  'P 1'
_symmetry_Int_Tables_number     1

_symmetry_equiv_pos_as_xyz 'x,y,z'

loop_
_atom_site_label
_atom_site_type_symbol
_atom_site_fract_x
_atom_site_fract_y
_atom_site_fract_z
_atom_site_charge
C1       C      0.434180000000     0.995900000000     0.246220000000     0.430446   
C2       C      0.054380000000     0.495570000000     0.248060000000     0.431127   
C3       C      0.494730000000     0.056420000000     0.249900000000     0.429784   
C4       C      0.494260000000     0.436120000000     0.244450000000     0.428239   
C5       C      0.996190000000     0.186370000000     0.251000000000     0.43043    
C6       C      0.996000000000     0.306170000000     0.243280000000     0.429902   
C7       C      0.497070000000     0.243670000000     0.187080000000     0.427107   
C8       C      0.494930000000     0.248900000000     0.307190000000     0.426708   
C9       C      0.304280000000     0.995230000000     0.245570000000     0.421586   
C10      C      0.184090000000     0.993580000000     0.248960000000     0.432622   
C11      C      0.242790000000     0.492980000000     0.186900000000     0.43998    
C12      C      0.246090000000     0.495800000000     0.307070000000     0.429606   
C13      C      0.243380000000     0.996030000000     0.057100000000     0.427068   
C14      C      0.246940000000     0.495790000000     0.436890000000     0.439446   
C15      C      0.247830000000     0.056630000000     0.996290000000     0.429355   
C16      C      0.242250000000     0.436420000000     0.997830000000     0.436329   
C17      C      0.996890000000     0.244740000000     0.057090000000     0.426535   
C18      C      0.493480000000     0.247430000000     0.437170000000     0.43745    
C19      C      0.055280000000     0.245590000000     0.996620000000     0.41419    
C20      C      0.435050000000     0.247240000000     0.997490000000     0.415682   
C21      C      0.248620000000     0.186500000000     0.494970000000     0.438385   
C22      C      0.242860000000     0.306650000000     0.497180000000     0.425595   
C23      C      0.185250000000     0.245300000000     0.997470000000     0.428744   
C24      C      0.305250000000     0.249450000000     0.994720000000     0.426666   
C25      C      0.386180000000     0.225980000000     0.480200000000     0.024487   
C26      C      0.386940000000     0.272080000000     0.011440000000    -0.00862577 
C27      C      0.353400000000     0.228060000000     0.477970000000     0.0340893  
C28      C      0.353860000000     0.273360000000     0.010910000000     0.154287   
C29      C      0.104000000000     0.222330000000     0.011950000000     0.0306591  
C30      C      0.103690000000     0.269830000000     0.482910000000    -0.0136831  
C31      C      0.136900000000     0.223590000000     0.013630000000     0.0422768  
C32      C      0.136770000000     0.270440000000     0.482920000000     0.150369   
C33      C      0.229470000000     0.355550000000     0.973260000000     0.0234519  
C34      C      0.253190000000     0.354760000000     0.023640000000    -0.00827232 
C35      C      0.227810000000     0.388430000000     0.974560000000     0.0340385  
C36      C      0.253670000000     0.387880000000     0.024230000000     0.154994   
C37      C      0.225500000000     0.105490000000     0.481000000000     0.0274278  
C38      C      0.273910000000     0.104750000000     0.008490000000    -0.00499783 
C39      C      0.226820000000     0.138280000000     0.479420000000     0.0369703  
C40      C      0.274410000000     0.137950000000     0.008900000000     0.155209   
C41      C      0.234250000000     0.020450000000     0.355940000000     0.0305183  
C42      C      0.261270000000     0.471740000000     0.355160000000    -0.0126258  
C43      C      0.233330000000     0.019300000000     0.388820000000     0.0428109  
C44      C      0.262270000000     0.471330000000     0.388260000000     0.148947   
C45      C      0.218520000000     0.007350000000     0.106070000000     0.0325535  
C46      C      0.266970000000     0.479910000000     0.105080000000    -0.0134524  
C47      C      0.219400000000     0.007460000000     0.138990000000     0.0426639  
C48      C      0.267060000000     0.478050000000     0.138120000000     0.149477   
C49      C      0.017160000000     0.233730000000     0.356170000000     0.0294809  
C50      C      0.470280000000     0.263730000000     0.355280000000    -0.0136549  
C51      C      0.015570000000     0.232160000000     0.388940000000     0.0414135  
C52      C      0.469410000000     0.263860000000     0.388450000000     0.148927   
C53      C      0.474430000000     0.228610000000     0.138100000000     0.0254783  
C54      C      0.521680000000     0.258010000000     0.138950000000    -0.0141023  
C55      C      0.475540000000     0.227830000000     0.105220000000     0.0362558  
C56      C      0.522150000000     0.258850000000     0.105830000000     0.14992    
C57      C      0.103530000000     0.007000000000     0.224080000000     0.0331665  
C58      C      0.102150000000     0.481520000000     0.273590000000    -0.010859   
C59      C      0.136350000000     0.007460000000     0.225260000000     0.0430974  
C60      C      0.135260000000     0.479820000000     0.273970000000     0.150185   
C61      C      0.353060000000     0.019680000000     0.232540000000     0.0308582  
C62      C      0.352570000000     0.470490000000     0.258660000000    -0.0132362  
C63      C      0.385970000000     0.018660000000     0.231410000000     0.041183   
C64      C      0.385650000000     0.470110000000     0.259360000000     0.149327   
C65      C      0.009420000000     0.387210000000     0.266670000000     0.0313278  
C66      C      0.481510000000     0.388030000000     0.218520000000    -0.0132402  
C67      C      0.011040000000     0.354450000000     0.265260000000     0.0407539  
C68      C      0.481250000000     0.354800000000     0.217860000000     0.148947   
C69      C      0.010590000000     0.105340000000     0.228140000000     0.0329623  
C70      C      0.481340000000     0.104520000000     0.275490000000    -0.0117018  
C71      C      0.012080000000     0.138110000000     0.229550000000     0.0415255  
C72      C      0.480950000000     0.137740000000     0.276080000000     0.150149   
C73      C      0.434180000000     0.995900000000     0.746210000000     0.430447   
C74      C      0.054380000000     0.495570000000     0.748060000000     0.431135   
C75      C      0.494730000000     0.056420000000     0.749900000000     0.429797   
C76      C      0.494260000000     0.436120000000     0.744450000000     0.428257   
C77      C      0.996190000000     0.186370000000     0.751000000000     0.430412   
C78      C      0.996000000000     0.306170000000     0.743280000000     0.429885   
C79      C      0.497070000000     0.243670000000     0.687080000000     0.427066   
C80      C      0.494930000000     0.248900000000     0.807190000000     0.426825   
C81      C      0.304280000000     0.995230000000     0.745570000000     0.421552   
C82      C      0.184090000000     0.993580000000     0.748960000000     0.432584   
C83      C      0.242790000000     0.492980000000     0.686890000000     0.439852   
C84      C      0.246090000000     0.495800000000     0.807070000000     0.429653   
C85      C      0.243380000000     0.996030000000     0.557100000000     0.428225   
C86      C      0.246940000000     0.495790000000     0.936890000000     0.438992   
C87      C      0.247830000000     0.056630000000     0.496290000000     0.430579   
C88      C      0.242250000000     0.436420000000     0.497830000000     0.437632   
C89      C      0.996890000000     0.244740000000     0.557090000000     0.428387   
C90      C      0.493480000000     0.247430000000     0.937170000000     0.436466   
C91      C      0.055280000000     0.245590000000     0.496620000000     0.425174   
C92      C      0.435050000000     0.247240000000     0.497490000000     0.426664   
C93      C      0.248620000000     0.186500000000     0.994970000000     0.428893   
C94      C      0.242860000000     0.306650000000     0.997180000000     0.416269   
C95      C      0.185250000000     0.245300000000     0.497470000000     0.438037   
C96      C      0.305250000000     0.249450000000     0.494720000000     0.436052   
C97      C      0.386180000000     0.225980000000     0.980200000000     0.02291    
C98      C      0.386940000000     0.272080000000     0.511440000000    -0.0141514  
C99      C      0.353400000000     0.228060000000     0.977970000000     0.0325558  
C100     C      0.353860000000     0.273360000000     0.510910000000     0.148982   
C101     C      0.104000000000     0.222330000000     0.511950000000     0.0251466  
C102     C      0.103690000000     0.269830000000     0.982910000000    -0.0150922  
C103     C      0.136900000000     0.223590000000     0.513630000000     0.0365377  
C104     C      0.136770000000     0.270440000000     0.982920000000     0.14893    
C105     C      0.229470000000     0.355550000000     0.473260000000     0.0248106  
C106     C      0.253190000000     0.354760000000     0.523640000000    -0.0136574  
C107     C      0.227810000000     0.388430000000     0.474560000000     0.0349319  
C108     C      0.253670000000     0.387880000000     0.524230000000     0.14917    
C109     C      0.225500000000     0.105490000000     0.981000000000     0.0262933  
C110     C      0.273910000000     0.104750000000     0.508490000000    -0.011342   
C111     C      0.226820000000     0.138280000000     0.979420000000     0.0354016  
C112     C      0.274410000000     0.137950000000     0.508900000000     0.14993    
C113     C      0.234250000000     0.020450000000     0.855940000000     0.0304614  
C114     C      0.261270000000     0.471740000000     0.855160000000    -0.012638   
C115     C      0.233330000000     0.019300000000     0.888820000000     0.0426557  
C116     C      0.262270000000     0.471330000000     0.888260000000     0.148737   
C117     C      0.218520000000     0.007350000000     0.606070000000     0.032289   
C118     C      0.266970000000     0.479910000000     0.605080000000    -0.0136004  
C119     C      0.219400000000     0.007460000000     0.638990000000     0.0424304  
C120     C      0.267060000000     0.478050000000     0.638120000000     0.149228   
C121     C      0.017160000000     0.233730000000     0.856170000000     0.0294268  
C122     C      0.470280000000     0.263730000000     0.855280000000    -0.0136365  
C123     C      0.015570000000     0.232160000000     0.888940000000     0.0412446  
C124     C      0.469410000000     0.263860000000     0.888450000000     0.148608   
C125     C      0.474430000000     0.228610000000     0.638100000000     0.025256   
C126     C      0.521680000000     0.258010000000     0.638950000000    -0.0141752  
C127     C      0.475540000000     0.227830000000     0.605220000000     0.0361031  
C128     C      0.522150000000     0.258850000000     0.605830000000     0.1495     
C129     C      0.103530000000     0.007000000000     0.724080000000     0.0330265  
C130     C      0.102150000000     0.481520000000     0.773590000000    -0.0108292  
C131     C      0.136350000000     0.007460000000     0.725260000000     0.0430457  
C132     C      0.135260000000     0.479820000000     0.773970000000     0.15009    
C133     C      0.353060000000     0.019680000000     0.732540000000     0.0308214  
C134     C      0.352570000000     0.470490000000     0.758660000000    -0.0132933  
C135     C      0.385970000000     0.018660000000     0.731410000000     0.041048   
C136     C      0.385650000000     0.470110000000     0.759360000000     0.149274   
C137     C      0.009420000000     0.387210000000     0.766670000000     0.031302   
C138     C      0.481510000000     0.388030000000     0.718520000000    -0.0132764  
C139     C      0.011040000000     0.354450000000     0.765260000000     0.0406835  
C140     C      0.481250000000     0.354800000000     0.717860000000     0.148821   
C141     C      0.010590000000     0.105340000000     0.728140000000     0.0329008  
C142     C      0.481340000000     0.104520000000     0.775490000000    -0.0117339  
C143     C      0.012080000000     0.138110000000     0.729550000000     0.0414573  
C144     C      0.480950000000     0.137740000000     0.776080000000     0.150058   
C145     C      0.434180000000     0.495900000000     0.246220000000     0.439335   
C146     C      0.054380000000     0.995570000000     0.248060000000     0.429864   
C147     C      0.494730000000     0.556420000000     0.249900000000     0.430937   
C148     C      0.494260000000     0.936120000000     0.244450000000     0.427568   
C149     C      0.996190000000     0.686370000000     0.251000000000     0.430396   
C150     C      0.996000000000     0.806170000000     0.243280000000     0.429854   
C151     C      0.497070000000     0.743670000000     0.187080000000     0.427088   
C152     C      0.494930000000     0.748900000000     0.307190000000     0.426706   
C153     C      0.304280000000     0.495230000000     0.245570000000     0.429438   
C154     C      0.184090000000     0.493580000000     0.248960000000     0.440186   
C155     C      0.242790000000     0.992980000000     0.186900000000     0.432124   
C156     C      0.246090000000     0.995800000000     0.307070000000     0.422006   
C157     C      0.243380000000     0.496030000000     0.057100000000     0.428063   
C158     C      0.246940000000     0.995790000000     0.436890000000     0.438461   
C159     C      0.247830000000     0.556630000000     0.996290000000     0.430201   
C160     C      0.242250000000     0.936420000000     0.997830000000     0.435886   
C161     C      0.996890000000     0.744740000000     0.057090000000     0.426535   
C162     C      0.493480000000     0.747430000000     0.437170000000     0.437465   
C163     C      0.055280000000     0.745590000000     0.996620000000     0.414184   
C164     C      0.435050000000     0.747240000000     0.997490000000     0.415687   
C165     C      0.248620000000     0.686500000000     0.494970000000     0.438344   
C166     C      0.242860000000     0.806650000000     0.497180000000     0.425595   
C167     C      0.185250000000     0.745300000000     0.997470000000     0.428713   
C168     C      0.305250000000     0.749450000000     0.994720000000     0.426657   
C169     C      0.386180000000     0.725980000000     0.480200000000     0.0244296  
C170     C      0.386940000000     0.772080000000     0.011440000000    -0.00863688 
C171     C      0.353400000000     0.728060000000     0.477970000000     0.034039   
C172     C      0.353860000000     0.773360000000     0.010910000000     0.154243   
C173     C      0.104000000000     0.722330000000     0.011950000000     0.0306291  
C174     C      0.103690000000     0.769830000000     0.482910000000    -0.013699   
C175     C      0.136900000000     0.723590000000     0.013630000000     0.0421424  
C176     C      0.136770000000     0.770440000000     0.482920000000     0.150351   
C177     C      0.229470000000     0.855550000000     0.973260000000     0.023424   
C178     C      0.253190000000     0.854760000000     0.023640000000    -0.00830601 
C179     C      0.227810000000     0.888430000000     0.974560000000     0.0339174  
C180     C      0.253670000000     0.887870000000     0.024230000000     0.154741   
C181     C      0.225500000000     0.605490000000     0.481000000000     0.0272023  
C182     C      0.273910000000     0.604740000000     0.008490000000    -0.00512364 
C183     C      0.226820000000     0.638280000000     0.479420000000     0.0367472  
C184     C      0.274410000000     0.637950000000     0.008900000000     0.154893   
C185     C      0.234250000000     0.520450000000     0.355940000000     0.0259475  
C186     C      0.261270000000     0.971740000000     0.355160000000    -0.0137136  
C187     C      0.233330000000     0.519300000000     0.388820000000     0.0374816  
C188     C      0.262270000000     0.971330000000     0.388260000000     0.14825    
C189     C      0.218520000000     0.507350000000     0.106070000000     0.0272608  
C190     C      0.266970000000     0.979910000000     0.105080000000    -0.0142905  
C191     C      0.219400000000     0.507460000000     0.138990000000     0.038125   
C192     C      0.267060000000     0.978050000000     0.138120000000     0.148129   
C193     C      0.017160000000     0.733730000000     0.356170000000     0.0294406  
C194     C      0.470280000000     0.763730000000     0.355280000000    -0.0136848  
C195     C      0.015570000000     0.732160000000     0.388940000000     0.0413432  
C196     C      0.469410000000     0.763860000000     0.388450000000     0.148849   
C197     C      0.474430000000     0.728610000000     0.138100000000     0.0254359  
C198     C      0.521680000000     0.758010000000     0.138950000000    -0.014155   
C199     C      0.475540000000     0.727830000000     0.105220000000     0.0361233  
C200     C      0.522150000000     0.758850000000     0.105830000000     0.149874   
C201     C      0.103530000000     0.507000000000     0.224080000000     0.0279078  
C202     C      0.102150000000     0.981520000000     0.273590000000    -0.0117076  
C203     C      0.136350000000     0.507460000000     0.225260000000     0.0385254  
C204     C      0.135260000000     0.979820000000     0.273970000000     0.148844   
C205     C      0.353060000000     0.519680000000     0.232540000000     0.0261042  
C206     C      0.352570000000     0.970500000000     0.258660000000    -0.0141347  
C207     C      0.385970000000     0.518660000000     0.231410000000     0.0365392  
C208     C      0.385650000000     0.970110000000     0.259360000000     0.148267   
C209     C      0.009420000000     0.887210000000     0.266670000000     0.0312428  
C210     C      0.481510000000     0.888030000000     0.218520000000    -0.0133455  
C211     C      0.011040000000     0.854450000000     0.265260000000     0.0407146  
C212     C      0.481250000000     0.854800000000     0.217860000000     0.148861   
C213     C      0.010590000000     0.605330000000     0.228140000000     0.032832   
C214     C      0.481340000000     0.604520000000     0.275490000000    -0.0118828  
C215     C      0.012080000000     0.638110000000     0.229550000000     0.0413106  
C216     C      0.480950000000     0.637740000000     0.276080000000     0.149846   
C217     C      0.434180000000     0.495900000000     0.746210000000     0.439359   
C218     C      0.054380000000     0.995570000000     0.748060000000     0.429869   
C219     C      0.494730000000     0.556420000000     0.749900000000     0.430952   
C220     C      0.494260000000     0.936120000000     0.744450000000     0.427585   
C221     C      0.996190000000     0.686370000000     0.751000000000     0.430378   
C222     C      0.996000000000     0.806170000000     0.743280000000     0.429837   
C223     C      0.497070000000     0.743670000000     0.687080000000     0.427046   
C224     C      0.494930000000     0.748900000000     0.807190000000     0.426823   
C225     C      0.304280000000     0.495230000000     0.745570000000     0.429414   
C226     C      0.184090000000     0.493580000000     0.748960000000     0.44016    
C227     C      0.242790000000     0.992980000000     0.686890000000     0.431983   
C228     C      0.246090000000     0.995800000000     0.807070000000     0.422046   
C229     C      0.243380000000     0.496030000000     0.557100000000     0.429224   
C230     C      0.246940000000     0.995790000000     0.936890000000     0.43801    
C231     C      0.247830000000     0.556630000000     0.496290000000     0.431429   
C232     C      0.242250000000     0.936420000000     0.497830000000     0.437186   
C233     C      0.996890000000     0.744740000000     0.557090000000     0.42839    
C234     C      0.493480000000     0.747430000000     0.937170000000     0.43648    
C235     C      0.055280000000     0.745590000000     0.496620000000     0.425187   
C236     C      0.435050000000     0.747240000000     0.497490000000     0.42668    
C237     C      0.248620000000     0.686500000000     0.994970000000     0.428834   
C238     C      0.242860000000     0.806650000000     0.997180000000     0.416263   
C239     C      0.185250000000     0.745300000000     0.497470000000     0.438019   
C240     C      0.305250000000     0.749450000000     0.494720000000     0.436055   
C241     C      0.386180000000     0.725980000000     0.980200000000     0.0228508  
C242     C      0.386940000000     0.772080000000     0.511440000000    -0.0141714  
C243     C      0.353400000000     0.728060000000     0.977970000000     0.0325034  
C244     C      0.353860000000     0.773360000000     0.510910000000     0.14893    
C245     C      0.104000000000     0.722330000000     0.511950000000     0.0251064  
C246     C      0.103690000000     0.769830000000     0.982910000000    -0.0151091  
C247     C      0.136900000000     0.723590000000     0.513630000000     0.0363956  
C248     C      0.136770000000     0.770440000000     0.982920000000     0.148911   
C249     C      0.229470000000     0.855550000000     0.473260000000     0.024782   
C250     C      0.253190000000     0.854760000000     0.523640000000    -0.0136944  
C251     C      0.227810000000     0.888430000000     0.474560000000     0.0348105  
C252     C      0.253670000000     0.887870000000     0.524230000000     0.148922   
C253     C      0.225500000000     0.605490000000     0.981000000000     0.0260661  
C254     C      0.273910000000     0.604740000000     0.508490000000    -0.0114978  
C255     C      0.226820000000     0.638280000000     0.979420000000     0.0351744  
C256     C      0.274410000000     0.637950000000     0.508900000000     0.1496     
C257     C      0.234250000000     0.520450000000     0.855940000000     0.0258855  
C258     C      0.261270000000     0.971740000000     0.855160000000    -0.0137257  
C259     C      0.233330000000     0.519300000000     0.888820000000     0.0373256  
C260     C      0.262270000000     0.971330000000     0.888260000000     0.14804    
C261     C      0.218520000000     0.507350000000     0.606070000000     0.0269716  
C262     C      0.266970000000     0.979910000000     0.605080000000    -0.0144401  
C263     C      0.219400000000     0.507460000000     0.638990000000     0.0378774  
C264     C      0.267060000000     0.978050000000     0.638120000000     0.147877   
C265     C      0.017160000000     0.733730000000     0.856170000000     0.0293864  
C266     C      0.470280000000     0.763730000000     0.855280000000    -0.0136664  
C267     C      0.015570000000     0.732160000000     0.888940000000     0.0411742  
C268     C      0.469410000000     0.763860000000     0.888450000000     0.14853    
C269     C      0.474430000000     0.728610000000     0.638100000000     0.025213   
C270     C      0.521680000000     0.758010000000     0.638950000000    -0.0142282  
C271     C      0.475540000000     0.727830000000     0.605220000000     0.0359698  
C272     C      0.522150000000     0.758850000000     0.605830000000     0.149453   
C273     C      0.103530000000     0.507000000000     0.724080000000     0.0277592  
C274     C      0.102150000000     0.981520000000     0.773590000000    -0.0116783  
C275     C      0.136350000000     0.507460000000     0.725260000000     0.0384633  
C276     C      0.135260000000     0.979820000000     0.773970000000     0.148749   
C277     C      0.353060000000     0.519680000000     0.732540000000     0.026057   
C278     C      0.352570000000     0.970500000000     0.758660000000    -0.0141926  
C279     C      0.385970000000     0.518660000000     0.731410000000     0.0363957  
C280     C      0.385650000000     0.970110000000     0.759360000000     0.148213   
C281     C      0.009420000000     0.887210000000     0.766670000000     0.0312168  
C282     C      0.481510000000     0.888030000000     0.718520000000    -0.013382   
C283     C      0.011040000000     0.854450000000     0.765260000000     0.0406443  
C284     C      0.481250000000     0.854800000000     0.717860000000     0.148735   
C285     C      0.010590000000     0.605330000000     0.728140000000     0.03277    
C286     C      0.481340000000     0.604520000000     0.775490000000    -0.0119152  
C287     C      0.012080000000     0.638110000000     0.729550000000     0.0412416  
C288     C      0.480950000000     0.637740000000     0.776080000000     0.149755   
C289     C      0.934180000000     0.995900000000     0.246220000000     0.429968   
C290     C      0.554380000000     0.495570000000     0.248060000000     0.431927   
C291     C      0.994730000000     0.056420000000     0.249900000000     0.428837   
C292     C      0.994260000000     0.436120000000     0.244450000000     0.427307   
C293     C      0.496190000000     0.186370000000     0.251000000000     0.438077   
C294     C      0.496000000000     0.306170000000     0.243280000000     0.43755    
C295     C      0.997070000000     0.243670000000     0.187080000000     0.419307   
C296     C      0.994930000000     0.248900000000     0.307190000000     0.4189     
C297     C      0.804280000000     0.995230000000     0.245570000000     0.421691   
C298     C      0.684090000000     0.993580000000     0.248960000000     0.432561   
C299     C      0.742800000000     0.492980000000     0.186900000000     0.439966   
C300     C      0.746090000000     0.495800000000     0.307070000000     0.429594   
C301     C      0.743380000000     0.996030000000     0.057100000000     0.427078   
C302     C      0.746940000000     0.495790000000     0.436890000000     0.439466   
C303     C      0.747830000000     0.056630000000     0.996290000000     0.429366   
C304     C      0.742250000000     0.436420000000     0.997830000000     0.43635    
C305     C      0.496890000000     0.244740000000     0.057090000000     0.435252   
C306     C      0.993480000000     0.247430000000     0.437170000000     0.436174   
C307     C      0.555280000000     0.245590000000     0.996620000000     0.415402   
C308     C      0.935040000000     0.247240000000     0.997490000000     0.415173   
C309     C      0.748620000000     0.186500000000     0.494970000000     0.438337   
C310     C      0.742860000000     0.306650000000     0.497180000000     0.425601   
C311     C      0.685250000000     0.245300000000     0.997470000000     0.428702   
C312     C      0.805250000000     0.249450000000     0.994720000000     0.426603   
C313     C      0.886170000000     0.225980000000     0.480200000000     0.0244117  
C314     C      0.886940000000     0.272080000000     0.011440000000    -0.00868847 
C315     C      0.853400000000     0.228060000000     0.477970000000     0.0340484  
C316     C      0.853860000000     0.273360000000     0.010910000000     0.154214   
C317     C      0.604000000000     0.222330000000     0.011950000000     0.0305363  
C318     C      0.603690000000     0.269830000000     0.482910000000    -0.0137691  
C319     C      0.636890000000     0.223590000000     0.013630000000     0.0420497  
C320     C      0.636770000000     0.270440000000     0.482920000000     0.150102   
C321     C      0.729470000000     0.355550000000     0.973260000000     0.0233696  
C322     C      0.753180000000     0.354760000000     0.023640000000    -0.00822549 
C323     C      0.727810000000     0.388430000000     0.974560000000     0.0339674  
C324     C      0.753670000000     0.387880000000     0.024230000000     0.154911   
C325     C      0.725500000000     0.105490000000     0.481000000000     0.027398   
C326     C      0.773910000000     0.104750000000     0.008490000000    -0.00503933 
C327     C      0.726820000000     0.138280000000     0.479420000000     0.0368386  
C328     C      0.774410000000     0.137950000000     0.008900000000     0.155219   
C329     C      0.734250000000     0.020450000000     0.355940000000     0.0304779  
C330     C      0.761270000000     0.471740000000     0.355160000000    -0.0126753  
C331     C      0.733330000000     0.019300000000     0.388820000000     0.0427455  
C332     C      0.762270000000     0.471330000000     0.388260000000     0.148874   
C333     C      0.718520000000     0.007350000000     0.106070000000     0.0324635  
C334     C      0.766970000000     0.479910000000     0.105080000000    -0.0134402  
C335     C      0.719400000000     0.007460000000     0.138990000000     0.0426856  
C336     C      0.767060000000     0.478050000000     0.138120000000     0.149337   
C337     C      0.517160000000     0.233730000000     0.356170000000     0.0250133  
C338     C      0.970290000000     0.263730000000     0.355280000000    -0.0147027  
C339     C      0.515570000000     0.232160000000     0.388940000000     0.0361864  
C340     C      0.969410000000     0.263860000000     0.388450000000     0.148103   
C341     C      0.974430000000     0.228610000000     0.138100000000     0.0244829  
C342     C      0.021680000000     0.258010000000     0.138950000000    -0.00943972 
C343     C      0.975540000000     0.227830000000     0.105220000000     0.0350783  
C344     C      0.022150000000     0.258850000000     0.105830000000     0.154065   
C345     C      0.603530000000     0.007000000000     0.224080000000     0.0329294  
C346     C      0.602150000000     0.481520000000     0.273590000000    -0.0110866  
C347     C      0.636350000000     0.007460000000     0.225260000000     0.0428908  
C348     C      0.635260000000     0.479820000000     0.273970000000     0.1499     
C349     C      0.853060000000     0.019680000000     0.232540000000     0.0308224  
C350     C      0.852570000000     0.470490000000     0.258660000000    -0.0132415  
C351     C      0.885970000000     0.018660000000     0.231410000000     0.0410923  
C352     C      0.885650000000     0.470110000000     0.259360000000     0.149183   
C353     C      0.509420000000     0.387210000000     0.266670000000     0.0260583  
C354     C      0.981510000000     0.388030000000     0.218520000000    -0.0140402  
C355     C      0.511040000000     0.354450000000     0.265260000000     0.0362703  
C356     C      0.981260000000     0.354800000000     0.217860000000     0.147621   
C357     C      0.510590000000     0.105340000000     0.228140000000     0.0277258  
C358     C      0.981340000000     0.104520000000     0.275490000000    -0.0125007  
C359     C      0.512080000000     0.138110000000     0.229550000000     0.0370535  
C360     C      0.980950000000     0.137740000000     0.276080000000     0.148831   
C361     C      0.934180000000     0.995900000000     0.746210000000     0.429969   
C362     C      0.554380000000     0.495570000000     0.748060000000     0.431935   
C363     C      0.994730000000     0.056420000000     0.749900000000     0.42885    
C364     C      0.994260000000     0.436120000000     0.744450000000     0.427325   
C365     C      0.496190000000     0.186370000000     0.751000000000     0.438065   
C366     C      0.496000000000     0.306170000000     0.743280000000     0.437539   
C367     C      0.997070000000     0.243670000000     0.687080000000     0.419255   
C368     C      0.994930000000     0.248900000000     0.807190000000     0.419015   
C369     C      0.804280000000     0.995230000000     0.745570000000     0.421656   
C370     C      0.684090000000     0.993580000000     0.748960000000     0.432523   
C371     C      0.742800000000     0.492980000000     0.686890000000     0.439838   
C372     C      0.746090000000     0.495800000000     0.807070000000     0.429642   
C373     C      0.743380000000     0.996030000000     0.557100000000     0.428237   
C374     C      0.746940000000     0.495790000000     0.936890000000     0.439012   
C375     C      0.747830000000     0.056630000000     0.496290000000     0.430591   
C376     C      0.742250000000     0.436420000000     0.497830000000     0.437654   
C377     C      0.496890000000     0.244740000000     0.557090000000     0.437143   
C378     C      0.993480000000     0.247430000000     0.937170000000     0.435197   
C379     C      0.555280000000     0.245590000000     0.496620000000     0.426432   
C380     C      0.935040000000     0.247240000000     0.497490000000     0.426128   
C381     C      0.748620000000     0.186500000000     0.994970000000     0.42884    
C382     C      0.742860000000     0.306650000000     0.997180000000     0.416269   
C383     C      0.685250000000     0.245300000000     0.497470000000     0.438007   
C384     C      0.805250000000     0.249450000000     0.494720000000     0.435989   
C385     C      0.886170000000     0.225980000000     0.980200000000     0.022833   
C386     C      0.886940000000     0.272080000000     0.511440000000    -0.014205   
C387     C      0.853400000000     0.228060000000     0.977970000000     0.0325182  
C388     C      0.853860000000     0.273360000000     0.510910000000     0.148907   
C389     C      0.604000000000     0.222330000000     0.511950000000     0.0250043  
C390     C      0.603690000000     0.269830000000     0.982910000000    -0.0151814  
C391     C      0.636890000000     0.223590000000     0.513630000000     0.0363016  
C392     C      0.636770000000     0.270440000000     0.982920000000     0.148661   
C393     C      0.729470000000     0.355550000000     0.473260000000     0.0247288  
C394     C      0.753180000000     0.354760000000     0.523640000000    -0.0136186  
C395     C      0.727810000000     0.388430000000     0.474560000000     0.0348613  
C396     C      0.753670000000     0.387880000000     0.524230000000     0.149081   
C397     C      0.725500000000     0.105490000000     0.981000000000     0.026263   
C398     C      0.773910000000     0.104750000000     0.508490000000    -0.0113892  
C399     C      0.726820000000     0.138280000000     0.979420000000     0.0352691  
C400     C      0.774410000000     0.137950000000     0.508900000000     0.149933   
C401     C      0.734250000000     0.020450000000     0.855940000000     0.030421   
C402     C      0.761270000000     0.471740000000     0.855160000000    -0.0126875  
C403     C      0.733330000000     0.019300000000     0.888820000000     0.0425902  
C404     C      0.762270000000     0.471330000000     0.888260000000     0.148663   
C405     C      0.718520000000     0.007350000000     0.606070000000     0.0321983  
C406     C      0.766970000000     0.479910000000     0.605080000000    -0.0135885  
C407     C      0.719400000000     0.007460000000     0.638990000000     0.0424515  
C408     C      0.767060000000     0.478050000000     0.638120000000     0.149087   
C409     C      0.517160000000     0.233730000000     0.856170000000     0.0249595  
C410     C      0.970290000000     0.263730000000     0.855280000000    -0.0146852  
C411     C      0.515570000000     0.232160000000     0.888940000000     0.0360193  
C412     C      0.969410000000     0.263860000000     0.888450000000     0.147786   
C413     C      0.974430000000     0.228610000000     0.638100000000     0.0242591  
C414     C      0.021680000000     0.258010000000     0.638950000000    -0.00950106 
C415     C      0.975540000000     0.227830000000     0.605220000000     0.0349231  
C416     C      0.022150000000     0.258850000000     0.605830000000     0.153662   
C417     C      0.603530000000     0.007000000000     0.724080000000     0.0327885  
C418     C      0.602150000000     0.481520000000     0.773590000000    -0.0110571  
C419     C      0.636350000000     0.007460000000     0.725260000000     0.0428386  
C420     C      0.635260000000     0.479820000000     0.773970000000     0.149806   
C421     C      0.853060000000     0.019680000000     0.732540000000     0.0307856  
C422     C      0.852570000000     0.470490000000     0.758660000000    -0.0132987  
C423     C      0.885970000000     0.018660000000     0.731410000000     0.0409573  
C424     C      0.885650000000     0.470110000000     0.759360000000     0.14913    
C425     C      0.509420000000     0.387210000000     0.766670000000     0.0260256  
C426     C      0.981510000000     0.388030000000     0.718520000000    -0.0140765  
C427     C      0.511040000000     0.354450000000     0.765260000000     0.0361931  
C428     C      0.981260000000     0.354800000000     0.717860000000     0.147494   
C429     C      0.510590000000     0.105340000000     0.728140000000     0.027657   
C430     C      0.981340000000     0.104520000000     0.775490000000    -0.0125326  
C431     C      0.512080000000     0.138110000000     0.729550000000     0.0369791  
C432     C      0.980950000000     0.137740000000     0.776080000000     0.148741   
C433     C      0.934180000000     0.495900000000     0.246220000000     0.438858   
C434     C      0.554380000000     0.995570000000     0.248060000000     0.430662   
C435     C      0.994730000000     0.556420000000     0.249900000000     0.429989   
C436     C      0.994260000000     0.936120000000     0.244450000000     0.426637   
C437     C      0.496190000000     0.686370000000     0.251000000000     0.438065   
C438     C      0.496000000000     0.806170000000     0.243280000000     0.437515   
C439     C      0.997070000000     0.743670000000     0.187080000000     0.419269   
C440     C      0.994930000000     0.748900000000     0.307190000000     0.418881   
C441     C      0.804280000000     0.495230000000     0.245570000000     0.429556   
C442     C      0.684090000000     0.493580000000     0.248960000000     0.440149   
C443     C      0.742800000000     0.992980000000     0.186900000000     0.432092   
C444     C      0.746090000000     0.995800000000     0.307070000000     0.421977   
C445     C      0.743380000000     0.496030000000     0.057100000000     0.428075   
C446     C      0.746940000000     0.995790000000     0.436890000000     0.438479   
C447     C      0.747830000000     0.556630000000     0.996290000000     0.430214   
C448     C      0.742250000000     0.936420000000     0.997830000000     0.435906   
C449     C      0.496890000000     0.744740000000     0.057090000000     0.435272   
C450     C      0.993480000000     0.747430000000     0.437170000000     0.436187   
C451     C      0.555280000000     0.745590000000     0.996620000000     0.4154     
C452     C      0.935040000000     0.747240000000     0.997490000000     0.415176   
C453     C      0.748620000000     0.686500000000     0.494970000000     0.438296   
C454     C      0.742860000000     0.806650000000     0.497180000000     0.425601   
C455     C      0.685250000000     0.745300000000     0.997470000000     0.428671   
C456     C      0.805250000000     0.749450000000     0.994720000000     0.426594   
C457     C      0.886170000000     0.725980000000     0.480200000000     0.0243539  
C458     C      0.886940000000     0.772080000000     0.011440000000    -0.00869979 
C459     C      0.853400000000     0.728060000000     0.477970000000     0.033998   
C460     C      0.853860000000     0.773360000000     0.010910000000     0.154169   
C461     C      0.604000000000     0.722330000000     0.011950000000     0.0305057  
C462     C      0.603690000000     0.769830000000     0.482910000000    -0.0137855  
C463     C      0.636890000000     0.723590000000     0.013630000000     0.0419145  
C464     C      0.636770000000     0.770440000000     0.482920000000     0.150083   
C465     C      0.729470000000     0.855550000000     0.973260000000     0.0233416  
C466     C      0.753180000000     0.854760000000     0.023640000000    -0.00825925 
C467     C      0.727810000000     0.888430000000     0.974560000000     0.033846   
C468     C      0.753670000000     0.887870000000     0.024230000000     0.154658   
C469     C      0.725500000000     0.605490000000     0.481000000000     0.0271717  
C470     C      0.773910000000     0.604740000000     0.008490000000    -0.00516567 
C471     C      0.726820000000     0.638280000000     0.479420000000     0.0366147  
C472     C      0.774410000000     0.637950000000     0.008900000000     0.154903   
C473     C      0.734250000000     0.520450000000     0.355940000000     0.0258944  
C474     C      0.761270000000     0.971740000000     0.355160000000    -0.0137655  
C475     C      0.733330000000     0.519300000000     0.388820000000     0.0374013  
C476     C      0.762270000000     0.971330000000     0.388260000000     0.148175   
C477     C      0.718520000000     0.507350000000     0.106070000000     0.0271561  
C478     C      0.766970000000     0.979910000000     0.105080000000    -0.01428    
C479     C      0.719400000000     0.507460000000     0.138990000000     0.038132   
C480     C      0.767060000000     0.978050000000     0.138120000000     0.147987   
C481     C      0.517160000000     0.733730000000     0.356170000000     0.0249601  
C482     C      0.970290000000     0.763730000000     0.355280000000    -0.0147347  
C483     C      0.515570000000     0.732160000000     0.388940000000     0.0361009  
C484     C      0.969410000000     0.763860000000     0.388450000000     0.148024   
C485     C      0.974430000000     0.728610000000     0.138100000000     0.024438   
C486     C      0.021680000000     0.758010000000     0.138950000000    -0.0094797  
C487     C      0.975540000000     0.727830000000     0.105220000000     0.0349434  
C488     C      0.022150000000     0.758850000000     0.105830000000     0.154031   
C489     C      0.603530000000     0.507000000000     0.224080000000     0.0276404  
C490     C      0.602150000000     0.981520000000     0.273590000000    -0.0119376  
C491     C      0.636350000000     0.507460000000     0.225260000000     0.0383011  
C492     C      0.635260000000     0.979820000000     0.273970000000     0.148555   
C493     C      0.853060000000     0.519680000000     0.232540000000     0.0260616  
C494     C      0.852570000000     0.970500000000     0.258660000000    -0.0141427  
C495     C      0.885970000000     0.518660000000     0.231410000000     0.0364433  
C496     C      0.885650000000     0.970110000000     0.259360000000     0.148123   
C497     C      0.509420000000     0.887210000000     0.266670000000     0.0259675  
C498     C      0.981510000000     0.888030000000     0.218520000000    -0.0141456  
C499     C      0.511040000000     0.854450000000     0.265260000000     0.0362221  
C500     C      0.981260000000     0.854800000000     0.217860000000     0.147534   
C501     C      0.510590000000     0.605330000000     0.228140000000     0.0275627  
C502     C      0.981340000000     0.604520000000     0.275490000000    -0.0126833  
C503     C      0.512080000000     0.638110000000     0.229550000000     0.0368211  
C504     C      0.980950000000     0.637740000000     0.276080000000     0.148524   
C505     C      0.934180000000     0.495900000000     0.746210000000     0.438882   
C506     C      0.554380000000     0.995570000000     0.748060000000     0.430668   
C507     C      0.994730000000     0.556420000000     0.749900000000     0.430004   
C508     C      0.994260000000     0.936120000000     0.744450000000     0.426654   
C509     C      0.496190000000     0.686370000000     0.751000000000     0.438053   
C510     C      0.496000000000     0.806170000000     0.743280000000     0.437504   
C511     C      0.997070000000     0.743670000000     0.687080000000     0.419218   
C512     C      0.994930000000     0.748900000000     0.807190000000     0.418996   
C513     C      0.804280000000     0.495230000000     0.745570000000     0.429532   
C514     C      0.684090000000     0.493580000000     0.748960000000     0.440122   
C515     C      0.742800000000     0.992980000000     0.686890000000     0.431951   
C516     C      0.746090000000     0.995800000000     0.807070000000     0.422017   
C517     C      0.743380000000     0.496030000000     0.557100000000     0.429237   
C518     C      0.746940000000     0.995790000000     0.936890000000     0.438028   
C519     C      0.747830000000     0.556630000000     0.496290000000     0.431442   
C520     C      0.742250000000     0.936420000000     0.497830000000     0.437207   
C521     C      0.496890000000     0.744740000000     0.557090000000     0.437166   
C522     C      0.993480000000     0.747430000000     0.937170000000     0.435209   
C523     C      0.555280000000     0.745590000000     0.496620000000     0.426448   
C524     C      0.935040000000     0.747240000000     0.497490000000     0.426144   
C525     C      0.748620000000     0.686500000000     0.994970000000     0.428781   
C526     C      0.742860000000     0.806650000000     0.997180000000     0.416263   
C527     C      0.685250000000     0.745300000000     0.497470000000     0.437989   
C528     C      0.805250000000     0.749450000000     0.494720000000     0.435992   
C529     C      0.886170000000     0.725980000000     0.980200000000     0.0227736  
C530     C      0.886940000000     0.772080000000     0.511440000000    -0.0142252  
C531     C      0.853400000000     0.728060000000     0.977970000000     0.0324657  
C532     C      0.853860000000     0.773360000000     0.510910000000     0.148854   
C533     C      0.604000000000     0.722330000000     0.511950000000     0.0249635  
C534     C      0.603690000000     0.769830000000     0.982910000000    -0.015199   
C535     C      0.636890000000     0.723590000000     0.513630000000     0.0361586  
C536     C      0.636770000000     0.770440000000     0.982920000000     0.148641   
C537     C      0.729470000000     0.855550000000     0.473260000000     0.0247001  
C538     C      0.753180000000     0.854760000000     0.523640000000    -0.0136557  
C539     C      0.727810000000     0.888430000000     0.474560000000     0.0347396  
C540     C      0.753670000000     0.887870000000     0.524230000000     0.148834   
C541     C      0.725500000000     0.605490000000     0.981000000000     0.026035   
C542     C      0.773910000000     0.604740000000     0.508490000000    -0.0115456  
C543     C      0.726820000000     0.638280000000     0.979420000000     0.0350411  
C544     C      0.774410000000     0.637950000000     0.508900000000     0.149602   
C545     C      0.734250000000     0.520450000000     0.855940000000     0.0258325  
C546     C      0.761270000000     0.971740000000     0.855160000000    -0.0137776  
C547     C      0.733330000000     0.519300000000     0.888820000000     0.0372453  
C548     C      0.762270000000     0.971330000000     0.888260000000     0.147966   
C549     C      0.718520000000     0.507350000000     0.606070000000     0.0268663  
C550     C      0.766970000000     0.979910000000     0.605080000000    -0.0144298  
C551     C      0.719400000000     0.507460000000     0.638990000000     0.0378838  
C552     C      0.767060000000     0.978050000000     0.638120000000     0.147733   
C553     C      0.517160000000     0.733730000000     0.856170000000     0.0249062  
C554     C      0.970290000000     0.763730000000     0.855280000000    -0.0147173  
C555     C      0.515570000000     0.732160000000     0.888940000000     0.0359336  
C556     C      0.969410000000     0.763860000000     0.888450000000     0.147707   
C557     C      0.974430000000     0.728610000000     0.638100000000     0.0242136  
C558     C      0.021680000000     0.758010000000     0.638950000000    -0.00954133 
C559     C      0.975540000000     0.727830000000     0.605220000000     0.0347874  
C560     C      0.022150000000     0.758850000000     0.605830000000     0.153627   
C561     C      0.603530000000     0.507000000000     0.724080000000     0.027491   
C562     C      0.602150000000     0.981520000000     0.773590000000    -0.0119085  
C563     C      0.636350000000     0.507460000000     0.725260000000     0.0382384  
C564     C      0.635260000000     0.979820000000     0.773970000000     0.148459   
C565     C      0.853060000000     0.519680000000     0.732540000000     0.0260145  
C566     C      0.852570000000     0.970500000000     0.758660000000    -0.0142006  
C567     C      0.885970000000     0.518660000000     0.731410000000     0.0362998  
C568     C      0.885650000000     0.970110000000     0.759360000000     0.148069   
C569     C      0.509420000000     0.887210000000     0.766670000000     0.0259347  
C570     C      0.981510000000     0.888030000000     0.718520000000    -0.0141822  
C571     C      0.511040000000     0.854450000000     0.765260000000     0.0361449  
C572     C      0.981260000000     0.854800000000     0.717860000000     0.147407   
C573     C      0.510590000000     0.605330000000     0.728140000000     0.0274933  
C574     C      0.981340000000     0.604520000000     0.775490000000    -0.0127156  
C575     C      0.512080000000     0.638110000000     0.729550000000     0.0367459  
C576     C      0.980950000000     0.637740000000     0.776080000000     0.148433   
H1       H      0.340940000000     0.210080000000     0.464650000000     0.031372   
H2       H      0.398020000000     0.207030000000     0.467740000000     0.0378099  
H3       H      0.399700000000     0.290120000000     0.024390000000     0.0493009  
H4       H      0.352080000000     0.315030000000     0.037720000000     0.0897933  
H5       H      0.315020000000     0.302340000000     0.023450000000     0.105779   
H6       H      0.149230000000     0.204830000000     0.025940000000     0.0330303  
H7       H      0.091940000000     0.203090000000     0.023750000000     0.0394138  
H8       H      0.091110000000     0.288730000000     0.471050000000     0.0507192  
H9       H      0.138790000000     0.313420000000     0.458260000000     0.090472   
H10      H      0.175830000000     0.299550000000     0.471290000000     0.105223   
H11      H      0.217650000000     0.401000000000     0.954700000000     0.0282534  
H12      H      0.219870000000     0.343660000000     0.452740000000     0.0335313  
H13      H      0.263060000000     0.341970000000     0.043520000000     0.0456227  
H14      H      0.274860000000     0.389850000000     0.068990000000     0.0891557  
H15      H      0.264690000000     0.427120000000     0.053160000000     0.105089   
H16      H      0.207720000000     0.150660000000     0.467670000000     0.0331023  
H17      H      0.205800000000     0.093630000000     0.469770000000     0.0388038  
H18      H      0.293030000000     0.091920000000     0.019690000000     0.0507684  
H19      H      0.303060000000     0.177210000000     0.020830000000     0.107663   
H20      H      0.317840000000     0.140010000000     0.032650000000     0.093053   
H21      H      0.221820000000     0.038440000000     0.401360000000     0.0318652  
H22      H      0.222890000000     0.040080000000     0.344100000000     0.0385187  
H23      H      0.272070000000     0.452370000000     0.342330000000     0.0482616  
H24      H      0.285980000000     0.427830000000     0.389970000000     0.0896423  
H25      H      0.274980000000     0.442670000000     0.427320000000     0.10506    
H26      H      0.200330000000     0.018930000000     0.151670000000     0.0308767  
H27      H      0.199080000000     0.019120000000     0.094320000000     0.04005    
H28      H      0.286350000000     0.469220000000     0.092200000000     0.0459567  
H29      H      0.295100000000     0.463720000000     0.177080000000     0.106205   
H30      H      0.310190000000     0.453680000000     0.139570000000     0.0895519  
H31      H      0.033970000000     0.219380000000     0.401360000000     0.0344449  
H32      H      0.036270000000     0.221430000000     0.344410000000     0.0392145  
H33      H      0.451770000000     0.275870000000     0.342410000000     0.0490275  
H34      H      0.440290000000     0.276190000000     0.427280000000     0.10622    
H35      H      0.427030000000     0.289470000000     0.390090000000     0.090459   
H36      H      0.456770000000     0.215670000000     0.092750000000     0.03431    
H37      H      0.455270000000     0.216440000000     0.149890000000     0.0388582  
H38      H      0.540500000000     0.269730000000     0.151760000000     0.0504033  
H39      H      0.065030000000     0.283650000000     0.104240000000     0.0930092  
H40      H      0.551170000000     0.271320000000     0.066960000000     0.108372   
H41      H      0.149100000000     0.018230000000     0.205830000000     0.030922   
H42      H      0.091940000000     0.017880000000     0.204030000000     0.0394008  
H43      H      0.089060000000     0.471450000000     0.293170000000     0.0492474  
H44      H      0.174250000000     0.466330000000     0.302270000000     0.105608   
H45      H      0.136710000000     0.456940000000     0.317890000000     0.0913366  
H46      H      0.398400000000     0.038150000000     0.220380000000     0.0328773  
H47      H      0.341070000000     0.039540000000     0.221730000000     0.0383938  
H48      H      0.339910000000     0.450880000000     0.269200000000     0.048632   
H49      H      0.424760000000     0.440860000000     0.270500000000     0.105924   
H50      H      0.387550000000     0.425900000000     0.281750000000     0.0900411  
H51      H      0.022970000000     0.342100000000     0.284270000000     0.0340011  
H52      H      0.020810000000     0.399020000000     0.286310000000     0.0385299  
H53      H      0.470140000000     0.400890000000     0.199520000000     0.0484329  
H54      H      0.469660000000     0.315710000000     0.188840000000     0.106158   
H55      H      0.457320000000     0.352900000000     0.174540000000     0.0906477  
H56      H      0.024520000000     0.150480000000     0.210890000000     0.0348054  
H57      H      0.022550000000     0.093530000000     0.208840000000     0.0401134  
H58      H      0.469470000000     0.091660000000     0.294180000000     0.0502593  
H59      H      0.468340000000     0.176860000000     0.304640000000     0.106408   
H60      H      0.455780000000     0.139650000000     0.318700000000     0.0921211  
H61      H      0.340940000000     0.210080000000     0.964650000000     0.0307728  
H62      H      0.398020000000     0.207030000000     0.967750000000     0.0374513  
H63      H      0.399700000000     0.290120000000     0.524390000000     0.049228   
H64      H      0.352080000000     0.315030000000     0.537720000000     0.0888207  
H65      H      0.315020000000     0.302340000000     0.523450000000     0.103893   
H66      H      0.149230000000     0.204830000000     0.525940000000     0.0325066  
H67      H      0.091940000000     0.203090000000     0.523750000000     0.0391285  
H68      H      0.091110000000     0.288730000000     0.971050000000     0.0504836  
H69      H      0.138790000000     0.313420000000     0.958260000000     0.0898272  
H70      H      0.175830000000     0.299550000000     0.971290000000     0.104638   
H71      H      0.217650000000     0.401000000000     0.454700000000     0.02839    
H72      H      0.219870000000     0.343660000000     0.952740000000     0.0336249  
H73      H      0.263060000000     0.341970000000     0.543520000000     0.0460379  
H74      H      0.274860000000     0.389850000000     0.568990000000     0.0886033  
H75      H      0.264690000000     0.427120000000     0.553160000000     0.103253   
H76      H      0.207720000000     0.150660000000     0.967670000000     0.0325985  
H77      H      0.205800000000     0.093630000000     0.969770000000     0.038275   
H78      H      0.293030000000     0.091920000000     0.519690000000     0.0500402  
H79      H      0.303060000000     0.177210000000     0.520830000000     0.105328   
H80      H      0.317840000000     0.140010000000     0.532650000000     0.0916912  
H81      H      0.221820000000     0.038440000000     0.901360000000     0.0316835  
H82      H      0.222890000000     0.040080000000     0.844100000000     0.0384162  
H83      H      0.272070000000     0.452370000000     0.842330000000     0.0481882  
H84      H      0.285980000000     0.427830000000     0.889970000000     0.0893187  
H85      H      0.274980000000     0.442670000000     0.927320000000     0.10474    
H86      H      0.200330000000     0.018930000000     0.651670000000     0.0306279  
H87      H      0.199080000000     0.019120000000     0.594320000000     0.0391724  
H88      H      0.286350000000     0.469220000000     0.592200000000     0.0453865  
H89      H      0.295100000000     0.463720000000     0.677080000000     0.106103   
H90      H      0.310190000000     0.453680000000     0.639570000000     0.0891763  
H91      H      0.033970000000     0.219380000000     0.901350000000     0.034069   
H92      H      0.036270000000     0.221430000000     0.844410000000     0.0391013  
H93      H      0.451770000000     0.275870000000     0.842410000000     0.0489271  
H94      H      0.440290000000     0.276190000000     0.927280000000     0.105625   
H95      H      0.427030000000     0.289470000000     0.890090000000     0.0899994  
H96      H      0.456770000000     0.215670000000     0.592750000000     0.0334828  
H97      H      0.455270000000     0.216440000000     0.649890000000     0.0386568  
H98      H      0.540500000000     0.269730000000     0.651760000000     0.0502225  
H99      H      0.065030000000     0.283650000000     0.604240000000     0.0922706  
H100     H      0.551170000000     0.271320000000     0.566960000000     0.106782   
H101     H      0.149100000000     0.018230000000     0.705830000000     0.0307393  
H102     H      0.091940000000     0.017880000000     0.704030000000     0.0391589  
H103     H      0.089060000000     0.471450000000     0.793170000000     0.0491074  
H104     H      0.174250000000     0.466330000000     0.802270000000     0.105571   
H105     H      0.136710000000     0.456940000000     0.817890000000     0.0911702  
H106     H      0.398400000000     0.038150000000     0.720380000000     0.0327285  
H107     H      0.341070000000     0.039540000000     0.721730000000     0.0382618  
H108     H      0.339910000000     0.450880000000     0.769200000000     0.0485805  
H109     H      0.424760000000     0.440860000000     0.770500000000     0.105841   
H110     H      0.387550000000     0.425900000000     0.781750000000     0.0899136  
H111     H      0.022970000000     0.342100000000     0.784260000000     0.0339379  
H112     H      0.020810000000     0.399020000000     0.786310000000     0.0384063  
H113     H      0.470140000000     0.400890000000     0.699520000000     0.0482051  
H114     H      0.469660000000     0.315710000000     0.688840000000     0.106027   
H115     H      0.457320000000     0.352900000000     0.674540000000     0.0903196  
H116     H      0.024520000000     0.150480000000     0.710890000000     0.0346503  
H117     H      0.022550000000     0.093530000000     0.708840000000     0.03989    
H118     H      0.469470000000     0.091660000000     0.794180000000     0.0501092  
H119     H      0.468340000000     0.176860000000     0.804640000000     0.106334   
H120     H      0.455780000000     0.139650000000     0.818700000000     0.0919038  
H121     H      0.340940000000     0.710080000000     0.464650000000     0.0312292  
H122     H      0.398020000000     0.707030000000     0.467740000000     0.0375963  
H123     H      0.399700000000     0.790120000000     0.024390000000     0.0492087  
H124     H      0.352080000000     0.815030000000     0.037720000000     0.0896713  
H125     H      0.315020000000     0.802340000000     0.023450000000     0.105747   
H126     H      0.149230000000     0.704830000000     0.025940000000     0.0328912  
H127     H      0.091940000000     0.703090000000     0.023750000000     0.0391908  
H128     H      0.091110000000     0.788740000000     0.471050000000     0.0506086  
H129     H      0.138790000000     0.813420000000     0.458260000000     0.090341   
H130     H      0.175830000000     0.799540000000     0.471290000000     0.105203   
H131     H      0.217650000000     0.901000000000     0.954700000000     0.02812    
H132     H      0.219870000000     0.843660000000     0.452740000000     0.0334793  
H133     H      0.263060000000     0.841970000000     0.043520000000     0.0455724  
H134     H      0.274860000000     0.889850000000     0.068990000000     0.0889596  
H135     H      0.264690000000     0.927120000000     0.053160000000     0.105047   
H136     H      0.207720000000     0.650660000000     0.467670000000     0.0329024  
H137     H      0.205800000000     0.593630000000     0.469770000000     0.0381413  
H138     H      0.293030000000     0.591920000000     0.019690000000     0.0499975  
H139     H      0.303060000000     0.677210000000     0.020830000000     0.107545   
H140     H      0.317840000000     0.640010000000     0.032650000000     0.0925891  
H141     H      0.221820000000     0.538440000000     0.401360000000     0.0315165  
H142     H      0.222890000000     0.540080000000     0.344100000000     0.0384058  
H143     H      0.272070000000     0.952370000000     0.342330000000     0.0483046  
H144     H      0.285980000000     0.927830000000     0.389970000000     0.0893929  
H145     H      0.274980000000     0.942670000000     0.427320000000     0.104944   
H146     H      0.200330000000     0.518930000000     0.151670000000     0.030561   
H147     H      0.199080000000     0.519120000000     0.094320000000     0.0394021  
H148     H      0.286350000000     0.969220000000     0.092200000000     0.0456192  
H149     H      0.295100000000     0.963720000000     0.177080000000     0.105624   
H150     H      0.310190000000     0.953680000000     0.139570000000     0.0889069  
H151     H      0.033970000000     0.719380000000     0.401360000000     0.034285   
H152     H      0.036270000000     0.721430000000     0.344410000000     0.0390848  
H153     H      0.451770000000     0.775870000000     0.342410000000     0.0489862  
H154     H      0.440290000000     0.776190000000     0.427280000000     0.106154   
H155     H      0.427030000000     0.789470000000     0.390090000000     0.0903665  
H156     H      0.456770000000     0.715670000000     0.092750000000     0.0341658  
H157     H      0.455270000000     0.716440000000     0.149890000000     0.0387297  
H158     H      0.540500000000     0.769730000000     0.151760000000     0.0503427  
H159     H      0.065030000000     0.783650000000     0.104240000000     0.0928799  
H160     H      0.551170000000     0.771320000000     0.066960000000     0.108295   
H161     H      0.149100000000     0.518230000000     0.205830000000     0.0305946  
H162     H      0.091940000000     0.517880000000     0.204030000000     0.0387347  
H163     H      0.089060000000     0.971450000000     0.293170000000     0.0488996  
H164     H      0.174250000000     0.966330000000     0.302270000000     0.105002   
H165     H      0.136710000000     0.956940000000     0.317890000000     0.0906905  
H166     H      0.398400000000     0.538150000000     0.220380000000     0.0327628  
H167     H      0.341070000000     0.539540000000     0.221730000000     0.0383646  
H168     H      0.339910000000     0.950880000000     0.269200000000     0.0486335  
H169     H      0.424760000000     0.940860000000     0.270500000000     0.105794   
H170     H      0.387550000000     0.925900000000     0.281750000000     0.0897809  
H171     H      0.022970000000     0.842100000000     0.284270000000     0.0339385  
H172     H      0.020810000000     0.899020000000     0.286310000000     0.0383821  
H173     H      0.470140000000     0.900890000000     0.199520000000     0.0480959  
H174     H      0.469660000000     0.815710000000     0.188840000000     0.106112   
H175     H      0.457320000000     0.852900000000     0.174540000000     0.09044    
H176     H      0.024520000000     0.650480000000     0.210890000000     0.034628   
H177     H      0.022550000000     0.593530000000     0.208840000000     0.0394783  
H178     H      0.469470000000     0.591660000000     0.294180000000     0.0495272  
H179     H      0.468340000000     0.676860000000     0.304640000000     0.106274   
H180     H      0.455780000000     0.639650000000     0.318700000000     0.0916464  
H181     H      0.340940000000     0.710080000000     0.964650000000     0.0306283  
H182     H      0.398020000000     0.707030000000     0.967750000000     0.0372367  
H183     H      0.399700000000     0.790120000000     0.524390000000     0.0491361  
H184     H      0.352080000000     0.815030000000     0.537720000000     0.0886977  
H185     H      0.315020000000     0.802340000000     0.523450000000     0.103858   
H186     H      0.149230000000     0.704830000000     0.525940000000     0.0323641  
H187     H      0.091940000000     0.703090000000     0.523750000000     0.0389031  
H188     H      0.091110000000     0.788740000000     0.971050000000     0.0503734  
H189     H      0.138790000000     0.813420000000     0.958260000000     0.0896968  
H190     H      0.175830000000     0.799540000000     0.971290000000     0.104618   
H191     H      0.217650000000     0.901000000000     0.454700000000     0.0282562  
H192     H      0.219870000000     0.843660000000     0.952740000000     0.033573   
H193     H      0.263060000000     0.841970000000     0.543520000000     0.0459877  
H194     H      0.274860000000     0.889850000000     0.568990000000     0.0884073  
H195     H      0.264690000000     0.927120000000     0.553160000000     0.103212   
H196     H      0.207720000000     0.650660000000     0.967670000000     0.0323979  
H197     H      0.205800000000     0.593630000000     0.969770000000     0.0376113  
H198     H      0.293030000000     0.591920000000     0.519690000000     0.0492658  
H199     H      0.303060000000     0.677210000000     0.520830000000     0.105204   
H200     H      0.317840000000     0.640010000000     0.532650000000     0.0912216  
H201     H      0.221820000000     0.538440000000     0.901360000000     0.0313342  
H202     H      0.222890000000     0.540080000000     0.844100000000     0.038303   
H203     H      0.272070000000     0.952370000000     0.842330000000     0.0482314  
H204     H      0.285980000000     0.927830000000     0.889970000000     0.0890698  
H205     H      0.274980000000     0.942670000000     0.927320000000     0.104624   
H206     H      0.200330000000     0.518930000000     0.651670000000     0.0303101  
H207     H      0.199080000000     0.519120000000     0.594320000000     0.0385187  
H208     H      0.286350000000     0.969220000000     0.592200000000     0.0450487  
H209     H      0.295100000000     0.963720000000     0.677080000000     0.10552    
H210     H      0.310190000000     0.953680000000     0.639570000000     0.0885303  
H211     H      0.033970000000     0.719380000000     0.901350000000     0.0339083  
H212     H      0.036270000000     0.721430000000     0.844410000000     0.0389713  
H213     H      0.451770000000     0.775870000000     0.842410000000     0.0488858  
H214     H      0.440290000000     0.776190000000     0.927280000000     0.105558   
H215     H      0.427030000000     0.789470000000     0.890090000000     0.0899071  
H216     H      0.456770000000     0.715670000000     0.592750000000     0.0333364  
H217     H      0.455270000000     0.716440000000     0.649890000000     0.0385273  
H218     H      0.540500000000     0.769730000000     0.651760000000     0.0501616  
H219     H      0.065030000000     0.783650000000     0.604240000000     0.0921403  
H220     H      0.551170000000     0.771320000000     0.566960000000     0.106704   
H221     H      0.149100000000     0.518230000000     0.705830000000     0.03041    
H222     H      0.091940000000     0.517880000000     0.704030000000     0.0384888  
H223     H      0.089060000000     0.971450000000     0.793170000000     0.0487603  
H224     H      0.174250000000     0.966330000000     0.802270000000     0.104965   
H225     H      0.136710000000     0.956940000000     0.817890000000     0.0905247  
H226     H      0.398400000000     0.538150000000     0.720380000000     0.0326122  
H227     H      0.341070000000     0.539540000000     0.721730000000     0.0382317  
H228     H      0.339910000000     0.950880000000     0.769200000000     0.0485823  
H229     H      0.424760000000     0.940860000000     0.770500000000     0.105711   
H230     H      0.387550000000     0.925900000000     0.781750000000     0.0896535  
H231     H      0.022970000000     0.842100000000     0.784260000000     0.0338754  
H232     H      0.020810000000     0.899020000000     0.786310000000     0.0382589  
H233     H      0.470140000000     0.900890000000     0.699520000000     0.0478675  
H234     H      0.469660000000     0.815710000000     0.688840000000     0.105981   
H235     H      0.457320000000     0.852900000000     0.674540000000     0.0901114  
H236     H      0.024520000000     0.650480000000     0.710890000000     0.0344719  
H237     H      0.022550000000     0.593530000000     0.708840000000     0.0392525  
H238     H      0.469470000000     0.591660000000     0.794180000000     0.0493759  
H239     H      0.468340000000     0.676860000000     0.804640000000     0.106198   
H240     H      0.455780000000     0.639650000000     0.818700000000     0.0914281  
H241     H      0.840940000000     0.210080000000     0.464650000000     0.0313087  
H242     H      0.898020000000     0.207030000000     0.467740000000     0.0376394  
H243     H      0.899710000000     0.290120000000     0.024390000000     0.0490008  
H244     H      0.852080000000     0.315030000000     0.037720000000     0.0896146  
H245     H      0.815020000000     0.302340000000     0.023450000000     0.105747   
H246     H      0.649230000000     0.204830000000     0.025940000000     0.0328587  
H247     H      0.591940000000     0.203090000000     0.023750000000     0.0387389  
H248     H      0.591110000000     0.288730000000     0.471050000000     0.0500689  
H249     H      0.638790000000     0.313420000000     0.458260000000     0.0900667  
H250     H      0.675830000000     0.299550000000     0.471290000000     0.105119   
H251     H      0.717650000000     0.401000000000     0.954700000000     0.028123   
H252     H      0.719870000000     0.343660000000     0.452740000000     0.0334579  
H253     H      0.763060000000     0.341970000000     0.043520000000     0.0455636  
H254     H      0.774870000000     0.389850000000     0.068990000000     0.0890174  
H255     H      0.764690000000     0.427120000000     0.053160000000     0.105028   
H256     H      0.707720000000     0.150660000000     0.467670000000     0.0329742  
H257     H      0.705800000000     0.093630000000     0.469770000000     0.0385864  
H258     H      0.793030000000     0.091920000000     0.019690000000     0.0506704  
H259     H      0.803060000000     0.177210000000     0.020830000000     0.107621   
H260     H      0.817840000000     0.140010000000     0.032650000000     0.0929062  
H261     H      0.721820000000     0.038440000000     0.401360000000     0.0317303  
H262     H      0.722890000000     0.040080000000     0.344100000000     0.0384004  
H263     H      0.772060000000     0.452370000000     0.342330000000     0.0482347  
H264     H      0.785990000000     0.427830000000     0.389970000000     0.0895157  
H265     H      0.774980000000     0.442670000000     0.427320000000     0.104989   
H266     H      0.700330000000     0.018930000000     0.151670000000     0.0307099  
H267     H      0.699080000000     0.019120000000     0.094320000000     0.0398263  
H268     H      0.786350000000     0.469220000000     0.092200000000     0.0458678  
H269     H      0.795110000000     0.463720000000     0.177080000000     0.106138   
H270     H      0.810190000000     0.453680000000     0.139570000000     0.0894264  
H271     H      0.533970000000     0.219380000000     0.401360000000     0.0339968  
H272     H      0.536270000000     0.221430000000     0.344410000000     0.0390678  
H273     H      0.951770000000     0.275870000000     0.342410000000     0.0489158  
H274     H      0.940300000000     0.276190000000     0.427280000000     0.106121   
H275     H      0.927030000000     0.289470000000     0.390090000000     0.0901429  
H276     H      0.956770000000     0.215670000000     0.092750000000     0.0342387  
H277     H      0.955270000000     0.216440000000     0.149890000000     0.0386864  
H278     H      0.040500000000     0.269730000000     0.151760000000     0.050342   
H279     H      0.565030000000     0.283650000000     0.104240000000     0.0924018  
H280     H      0.051170000000     0.271320000000     0.066960000000     0.1094     
H281     H      0.649100000000     0.018230000000     0.205830000000     0.0307351  
H282     H      0.591940000000     0.017880000000     0.204030000000     0.0387402  
H283     H      0.589060000000     0.471450000000     0.293170000000     0.0485789  
H284     H      0.674250000000     0.466330000000     0.302270000000     0.105486   
H285     H      0.636710000000     0.456940000000     0.317890000000     0.0909081  
H286     H      0.898400000000     0.038150000000     0.220380000000     0.0326815  
H287     H      0.841070000000     0.039540000000     0.221730000000     0.038322   
H288     H      0.839910000000     0.450880000000     0.269200000000     0.0485864  
H289     H      0.924760000000     0.440860000000     0.270500000000     0.105676   
H290     H      0.887550000000     0.425900000000     0.281750000000     0.0898106  
H291     H      0.522970000000     0.342100000000     0.284270000000     0.0335178  
H292     H      0.520810000000     0.399020000000     0.286310000000     0.0378554  
H293     H      0.970140000000     0.400890000000     0.199520000000     0.0480726  
H294     H      0.969650000000     0.315710000000     0.188840000000     0.105457   
H295     H      0.957320000000     0.352900000000     0.174540000000     0.0899716  
H296     H      0.524520000000     0.150480000000     0.210890000000     0.0343349  
H297     H      0.522550000000     0.093530000000     0.208840000000     0.0394544  
H298     H      0.969470000000     0.091660000000     0.294180000000     0.0499132  
H299     H      0.968340000000     0.176860000000     0.304640000000     0.105734   
H300     H      0.955780000000     0.139650000000     0.318700000000     0.0915009  
H301     H      0.840940000000     0.210080000000     0.964650000000     0.0307094  
H302     H      0.898020000000     0.207030000000     0.967750000000     0.0372826  
H303     H      0.899710000000     0.290120000000     0.524390000000     0.0489251  
H304     H      0.852080000000     0.315030000000     0.537720000000     0.0886415  
H305     H      0.815020000000     0.302340000000     0.523450000000     0.10386    
H306     H      0.649230000000     0.204830000000     0.525940000000     0.0323311  
H307     H      0.591940000000     0.203090000000     0.523750000000     0.0384505  
H308     H      0.591110000000     0.288730000000     0.971050000000     0.0498337  
H309     H      0.638790000000     0.313420000000     0.958260000000     0.0894211  
H310     H      0.675830000000     0.299550000000     0.971290000000     0.104534   
H311     H      0.717650000000     0.401000000000     0.454700000000     0.0282599  
H312     H      0.719870000000     0.343660000000     0.952740000000     0.0335515  
H313     H      0.763060000000     0.341970000000     0.543520000000     0.0459793  
H314     H      0.774870000000     0.389850000000     0.568990000000     0.0884643  
H315     H      0.764690000000     0.427120000000     0.553160000000     0.10319    
H316     H      0.707720000000     0.150660000000     0.967670000000     0.0324693  
H317     H      0.705800000000     0.093630000000     0.969770000000     0.0380568  
H318     H      0.793030000000     0.091920000000     0.519690000000     0.0499421  
H319     H      0.803060000000     0.177210000000     0.520830000000     0.105285   
H320     H      0.817840000000     0.140010000000     0.532650000000     0.0915442  
H321     H      0.721820000000     0.038440000000     0.901360000000     0.0315485  
H322     H      0.722890000000     0.040080000000     0.844100000000     0.0382979  
H323     H      0.772060000000     0.452370000000     0.842330000000     0.0481615  
H324     H      0.785990000000     0.427830000000     0.889970000000     0.0891925  
H325     H      0.774980000000     0.442670000000     0.927320000000     0.104669   
H326     H      0.700330000000     0.018930000000     0.651670000000     0.0304601  
H327     H      0.699080000000     0.019120000000     0.594320000000     0.0389462  
H328     H      0.786350000000     0.469220000000     0.592200000000     0.0452973  
H329     H      0.795110000000     0.463720000000     0.677080000000     0.106035   
H330     H      0.810190000000     0.453680000000     0.639570000000     0.0890507  
H331     H      0.533970000000     0.219380000000     0.901350000000     0.0336215  
H332     H      0.536270000000     0.221430000000     0.844410000000     0.0389537  
H333     H      0.951770000000     0.275870000000     0.842410000000     0.0488161  
H334     H      0.940300000000     0.276190000000     0.927280000000     0.105527   
H335     H      0.927030000000     0.289470000000     0.890090000000     0.0896843  
H336     H      0.956770000000     0.215670000000     0.592750000000     0.0334127  
H337     H      0.955270000000     0.216440000000     0.649890000000     0.0384849  
H338     H      0.040500000000     0.269730000000     0.651760000000     0.0501615  
H339     H      0.565030000000     0.283650000000     0.604240000000     0.0916591  
H340     H      0.051170000000     0.271320000000     0.566960000000     0.10782    
H341     H      0.649100000000     0.018230000000     0.705830000000     0.0305515  
H342     H      0.591940000000     0.017880000000     0.704030000000     0.0384961  
H343     H      0.589060000000     0.471450000000     0.793170000000     0.0484382  
H344     H      0.674250000000     0.466330000000     0.802270000000     0.105449   
H345     H      0.636710000000     0.456940000000     0.817890000000     0.0907412  
H346     H      0.898400000000     0.038150000000     0.720380000000     0.0325324  
H347     H      0.841070000000     0.039540000000     0.721730000000     0.0381899  
H348     H      0.839910000000     0.450880000000     0.769200000000     0.048535   
H349     H      0.924760000000     0.440860000000     0.770500000000     0.105593   
H350     H      0.887550000000     0.425900000000     0.781750000000     0.0896834  
H351     H      0.522970000000     0.342100000000     0.784260000000     0.0334554  
H352     H      0.520810000000     0.399020000000     0.786310000000     0.0377313  
H353     H      0.970140000000     0.400890000000     0.699520000000     0.0478446  
H354     H      0.969650000000     0.315710000000     0.688840000000     0.105325   
H355     H      0.957320000000     0.352900000000     0.674540000000     0.0896427  
H356     H      0.524520000000     0.150480000000     0.710890000000     0.0341773  
H357     H      0.522550000000     0.093530000000     0.708840000000     0.0392279  
H358     H      0.969470000000     0.091660000000     0.794180000000     0.0497642  
H359     H      0.968340000000     0.176860000000     0.804640000000     0.10566    
H360     H      0.955780000000     0.139650000000     0.818700000000     0.0912848  
H361     H      0.840940000000     0.710080000000     0.464650000000     0.0311655  
H362     H      0.898020000000     0.707030000000     0.467740000000     0.0374252  
H363     H      0.899710000000     0.790120000000     0.024390000000     0.0489085  
H364     H      0.852080000000     0.815030000000     0.037720000000     0.0894926  
H365     H      0.815020000000     0.802340000000     0.023450000000     0.105715   
H366     H      0.649230000000     0.704830000000     0.025940000000     0.0327182  
H367     H      0.591940000000     0.703090000000     0.023750000000     0.0385126  
H368     H      0.591110000000     0.788740000000     0.471050000000     0.0499566  
H369     H      0.638790000000     0.813420000000     0.458260000000     0.0899346  
H370     H      0.675830000000     0.799540000000     0.471290000000     0.105098   
H371     H      0.717650000000     0.901000000000     0.954700000000     0.0279891  
H372     H      0.719870000000     0.843660000000     0.452740000000     0.0334056  
H373     H      0.763060000000     0.841970000000     0.043520000000     0.0455132  
H374     H      0.774870000000     0.889850000000     0.068990000000     0.0888212  
H375     H      0.764690000000     0.927120000000     0.053160000000     0.104985   
H376     H      0.707720000000     0.650660000000     0.467670000000     0.032773   
H377     H      0.705800000000     0.593630000000     0.469770000000     0.0379207  
H378     H      0.793030000000     0.591920000000     0.019690000000     0.0498977  
H379     H      0.803060000000     0.677210000000     0.020830000000     0.107502   
H380     H      0.817840000000     0.640010000000     0.032650000000     0.0924412  
H381     H      0.721820000000     0.538440000000     0.401360000000     0.0313796  
H382     H      0.722890000000     0.540080000000     0.344100000000     0.0382861  
H383     H      0.772060000000     0.952370000000     0.342330000000     0.0482784  
H384     H      0.785990000000     0.927830000000     0.389970000000     0.0892662  
H385     H      0.774980000000     0.942670000000     0.427320000000     0.104873   
H386     H      0.700330000000     0.518930000000     0.151670000000     0.0303924  
H387     H      0.699080000000     0.519120000000     0.094320000000     0.0391744  
H388     H      0.786350000000     0.969220000000     0.092200000000     0.0455306  
H389     H      0.795110000000     0.963720000000     0.177080000000     0.105556   
H390     H      0.810190000000     0.953680000000     0.139570000000     0.0887813  
H391     H      0.533970000000     0.719380000000     0.401360000000     0.0338344  
H392     H      0.536270000000     0.721430000000     0.344410000000     0.0389364  
H393     H      0.951770000000     0.775870000000     0.342410000000     0.0488747  
H394     H      0.940300000000     0.776190000000     0.427280000000     0.106055   
H395     H      0.927030000000     0.789470000000     0.390090000000     0.0900503  
H396     H      0.956770000000     0.715670000000     0.092750000000     0.0340941  
H397     H      0.955270000000     0.716440000000     0.149890000000     0.038557   
H398     H      0.040500000000     0.769730000000     0.151760000000     0.050281   
H399     H      0.565030000000     0.783650000000     0.104240000000     0.0922708  
H400     H      0.051170000000     0.771320000000     0.066960000000     0.109327   
H401     H      0.649100000000     0.518230000000     0.205830000000     0.0304054  
H402     H      0.591940000000     0.517880000000     0.204030000000     0.0380682  
H403     H      0.589060000000     0.971450000000     0.293170000000     0.0482298  
H404     H      0.674250000000     0.966330000000     0.302270000000     0.104878   
H405     H      0.636710000000     0.956940000000     0.317890000000     0.09026    
H406     H      0.898400000000     0.538150000000     0.220380000000     0.032566   
H407     H      0.841070000000     0.539540000000     0.221730000000     0.038292   
H408     H      0.839910000000     0.950880000000     0.269200000000     0.0485886  
H409     H      0.924760000000     0.940860000000     0.270500000000     0.105546   
H410     H      0.887550000000     0.925900000000     0.281750000000     0.0895503  
H411     H      0.522970000000     0.842100000000     0.284270000000     0.0334539  
H412     H      0.520810000000     0.899020000000     0.286310000000     0.0377062  
H413     H      0.970140000000     0.900890000000     0.199520000000     0.0477362  
H414     H      0.969650000000     0.815710000000     0.188840000000     0.10541    
H415     H      0.957320000000     0.852900000000     0.174540000000     0.0897638  
H416     H      0.524520000000     0.650480000000     0.210890000000     0.0341548  
H417     H      0.522550000000     0.593530000000     0.208840000000     0.0388153  
H418     H      0.969470000000     0.591660000000     0.294180000000     0.0491798  
H419     H      0.968340000000     0.676860000000     0.304640000000     0.105598   
H420     H      0.955780000000     0.639650000000     0.318700000000     0.0910242  
H421     H      0.840940000000     0.710080000000     0.964650000000     0.0305646  
H422     H      0.898020000000     0.707030000000     0.967750000000     0.0370674  
H423     H      0.899710000000     0.790120000000     0.524390000000     0.0488331  
H424     H      0.852080000000     0.815030000000     0.537720000000     0.0885186  
H425     H      0.815020000000     0.802340000000     0.523450000000     0.103825   
H426     H      0.649230000000     0.704830000000     0.525940000000     0.0321873  
H427     H      0.591940000000     0.703090000000     0.523750000000     0.0382218  
H428     H      0.591110000000     0.788740000000     0.971050000000     0.0497219  
H429     H      0.638790000000     0.813420000000     0.958260000000     0.0892897  
H430     H      0.675830000000     0.799540000000     0.971290000000     0.104513   
H431     H      0.717650000000     0.901000000000     0.454700000000     0.0281255  
H432     H      0.719870000000     0.843660000000     0.952740000000     0.0334993  
H433     H      0.763060000000     0.841970000000     0.543520000000     0.0459289  
H434     H      0.774870000000     0.889850000000     0.568990000000     0.0882681  
H435     H      0.764690000000     0.927120000000     0.553160000000     0.103148   
H436     H      0.707720000000     0.650660000000     0.967670000000     0.0322674  
H437     H      0.705800000000     0.593630000000     0.969770000000     0.0373899  
H438     H      0.793030000000     0.591920000000     0.519690000000     0.0491659  
H439     H      0.803060000000     0.677210000000     0.520830000000     0.105161   
H440     H      0.817840000000     0.640010000000     0.532650000000     0.0910734  
H441     H      0.721820000000     0.538440000000     0.901360000000     0.0311971  
H442     H      0.722890000000     0.540080000000     0.844100000000     0.0381832  
H443     H      0.772060000000     0.952370000000     0.842330000000     0.0482053  
H444     H      0.785990000000     0.927830000000     0.889970000000     0.0889434  
H445     H      0.774980000000     0.942670000000     0.927320000000     0.104553   
H446     H      0.700330000000     0.518930000000     0.651670000000     0.0301405  
H447     H      0.699080000000     0.519120000000     0.594320000000     0.0382885  
H448     H      0.786350000000     0.969220000000     0.592200000000     0.0449599  
H449     H      0.795110000000     0.963720000000     0.677080000000     0.105452   
H450     H      0.810190000000     0.953680000000     0.639570000000     0.0884046  
H451     H      0.533970000000     0.719380000000     0.901350000000     0.0334583  
H452     H      0.536270000000     0.721430000000     0.844410000000     0.038822   
H453     H      0.951770000000     0.775870000000     0.842410000000     0.048775   
H454     H      0.940300000000     0.776190000000     0.927280000000     0.105461   
H455     H      0.927030000000     0.789470000000     0.890090000000     0.0895918  
H456     H      0.956770000000     0.715670000000     0.592750000000     0.0332659  
H457     H      0.955270000000     0.716440000000     0.649890000000     0.0383546  
H458     H      0.040500000000     0.769730000000     0.651760000000     0.0501002  
H459     H      0.565030000000     0.783650000000     0.604240000000     0.0915271  
H460     H      0.051170000000     0.771320000000     0.566960000000     0.107745   
H461     H      0.649100000000     0.518230000000     0.705830000000     0.0302199  
H462     H      0.591940000000     0.517880000000     0.704030000000     0.0378201  
H463     H      0.589060000000     0.971450000000     0.793170000000     0.0480898  
H464     H      0.674250000000     0.966330000000     0.802270000000     0.104841   
H465     H      0.636710000000     0.956940000000     0.817890000000     0.0900937  
H466     H      0.898400000000     0.538150000000     0.720380000000     0.0324153  
H467     H      0.841070000000     0.539540000000     0.721730000000     0.038159   
H468     H      0.839910000000     0.950880000000     0.769200000000     0.0485375  
H469     H      0.924760000000     0.940860000000     0.770500000000     0.105463   
H470     H      0.887550000000     0.925900000000     0.781750000000     0.0894233  
H471     H      0.522970000000     0.842100000000     0.784260000000     0.0333916  
H472     H      0.520810000000     0.899020000000     0.786310000000     0.0375824  
H473     H      0.970140000000     0.900890000000     0.699520000000     0.0475075  
H474     H      0.969650000000     0.815710000000     0.688840000000     0.105279   
H475     H      0.957320000000     0.852900000000     0.674540000000     0.0894344  
H476     H      0.524520000000     0.650480000000     0.710890000000     0.0339962  
H477     H      0.522550000000     0.593530000000     0.708840000000     0.0385864  
H478     H      0.969470000000     0.591660000000     0.794180000000     0.0490295  
H479     H      0.968340000000     0.676860000000     0.804640000000     0.105523   
H480     H      0.955780000000     0.639650000000     0.818700000000     0.0908073  
N1       N      0.402810000000     0.248200000000     0.996620000000    -0.175482   
N2       N      0.337340000000     0.250880000000     0.994160000000    -0.204289   
N3       N      0.339180000000     0.298110000000     0.025260000000    -0.213295   
N4       N      0.087550000000     0.245680000000     0.996950000000    -0.174678   
N5       N      0.153140000000     0.246820000000     0.998240000000    -0.203413   
N6       N      0.151620000000     0.295680000000     0.469620000000    -0.213023   
N7       N      0.241830000000     0.338880000000     0.497960000000    -0.173709   
N8       N      0.240830000000     0.404390000000     0.499340000000    -0.201716   
N9       N      0.265390000000     0.402710000000     0.050210000000    -0.214044   
N10      N      0.249140000000     0.088840000000     0.995300000000    -0.176268   
N11      N      0.250380000000     0.154410000000     0.494350000000    -0.200917   
N12      N      0.299730000000     0.152850000000     0.021920000000    -0.213691   
N13      N      0.247430000000     0.496230000000     0.339280000000    -0.173335   
N14      N      0.247840000000     0.495310000000     0.404800000000    -0.201399   
N15      N      0.275490000000     0.445970000000     0.402970000000    -0.214046   
N16      N      0.242760000000     0.994360000000     0.089300000000    -0.17589    
N17      N      0.243120000000     0.492340000000     0.154810000000    -0.201339   
N18      N      0.292080000000     0.464060000000     0.152690000000    -0.214153   
N19      N      0.494250000000     0.249040000000     0.339440000000    -0.173163   
N20      N      0.492480000000     0.247920000000     0.405020000000    -0.20078    
N21      N      0.444380000000     0.277720000000     0.403080000000    -0.213299   
N22      N      0.497680000000     0.243400000000     0.154830000000    -0.173085   
N23      N      0.998540000000     0.243820000000     0.089210000000    -0.202202   
N24      N      0.547300000000     0.272530000000     0.091200000000    -0.213286   
N25      N      0.086580000000     0.994670000000     0.248550000000    -0.175537   
N26      N      0.152030000000     0.993260000000     0.249580000000    -0.203498   
N27      N      0.149820000000     0.466690000000     0.299420000000    -0.213881   
N28      N      0.336530000000     0.995330000000     0.245680000000    -0.175515   
N29      N      0.402090000000     0.994590000000     0.245630000000    -0.203234   
N30      N      0.400460000000     0.444330000000     0.271650000000    -0.213455   
N31      N      0.994980000000     0.403900000000     0.243160000000    -0.176656   
N32      N      0.996080000000     0.338310000000     0.241710000000    -0.202826   
N33      N      0.468250000000     0.340000000000     0.192480000000    -0.21337    
N34      N      0.495500000000     0.088650000000     0.251230000000    -0.172255   
N35      N      0.996380000000     0.154240000000     0.252630000000    -0.202639   
N36      N      0.467170000000     0.152550000000     0.301040000000    -0.213276   
N37      N      0.402810000000     0.248200000000     0.496620000000    -0.173174   
N38      N      0.337340000000     0.250880000000     0.494160000000    -0.201618   
N39      N      0.339180000000     0.298110000000     0.525260000000    -0.212918   
N40      N      0.087550000000     0.245680000000     0.496950000000    -0.172365   
N41      N      0.153140000000     0.246820000000     0.498240000000    -0.200852   
N42      N      0.151620000000     0.295680000000     0.969620000000    -0.212988   
N43      N      0.241830000000     0.338880000000     0.997960000000    -0.176253   
N44      N      0.240830000000     0.404390000000     0.999340000000    -0.205515   
N45      N      0.265390000000     0.402710000000     0.550210000000    -0.213663   
N46      N      0.249140000000     0.088840000000     0.495300000000    -0.172453   
N47      N      0.250380000000     0.154410000000     0.994350000000    -0.203452   
N48      N      0.299730000000     0.152850000000     0.521920000000    -0.213357   
N49      N      0.247430000000     0.496230000000     0.839280000000    -0.173365   
N50      N      0.247840000000     0.495310000000     0.904800000000    -0.201351   
N51      N      0.275490000000     0.445970000000     0.902970000000    -0.214053   
N52      N      0.242760000000     0.994360000000     0.589300000000    -0.176437   
N53      N      0.243120000000     0.492340000000     0.654810000000    -0.201426   
N54      N      0.292080000000     0.464060000000     0.652690000000    -0.214148   
N55      N      0.494250000000     0.249040000000     0.839430000000    -0.173272   
N56      N      0.492480000000     0.247920000000     0.905020000000    -0.200632   
N57      N      0.444380000000     0.277720000000     0.903090000000    -0.213273   
N58      N      0.497680000000     0.243400000000     0.654830000000    -0.173119   
N59      N      0.998540000000     0.243820000000     0.589210000000    -0.202737   
N60      N      0.547300000000     0.272530000000     0.591200000000    -0.213217   
N61      N      0.086580000000     0.994670000000     0.748560000000    -0.175575   
N62      N      0.152030000000     0.993260000000     0.749580000000    -0.203509   
N63      N      0.149820000000     0.466690000000     0.799420000000    -0.21387    
N64      N      0.336530000000     0.995330000000     0.745680000000    -0.175537   
N65      N      0.402090000000     0.994590000000     0.745640000000    -0.203276   
N66      N      0.400460000000     0.444330000000     0.771650000000    -0.213475   
N67      N      0.994980000000     0.403900000000     0.743160000000    -0.176704   
N68      N      0.996080000000     0.338310000000     0.741710000000    -0.202824   
N69      N      0.468250000000     0.340000000000     0.692480000000    -0.213363   
N70      N      0.495500000000     0.088650000000     0.751230000000    -0.172297   
N71      N      0.996380000000     0.154240000000     0.752630000000    -0.202647   
N72      N      0.467170000000     0.152550000000     0.801040000000    -0.21327    
N73      N      0.402810000000     0.748200000000     0.996620000000    -0.175517   
N74      N      0.337340000000     0.750880000000     0.994160000000    -0.204296   
N75      N      0.339180000000     0.798110000000     0.025260000000    -0.213291   
N76      N      0.087550000000     0.745680000000     0.996950000000    -0.174723   
N77      N      0.153140000000     0.746830000000     0.998240000000    -0.203429   
N78      N      0.151620000000     0.795680000000     0.469620000000    -0.213047   
N79      N      0.241830000000     0.838880000000     0.497960000000    -0.173724   
N80      N      0.240830000000     0.904390000000     0.499340000000    -0.201635   
N81      N      0.265390000000     0.902720000000     0.050210000000    -0.214054   
N82      N      0.249140000000     0.588840000000     0.995300000000    -0.176765   
N83      N      0.250380000000     0.654410000000     0.494350000000    -0.200921   
N84      N      0.299730000000     0.652850000000     0.021920000000    -0.213684   
N85      N      0.247430000000     0.996230000000     0.339280000000    -0.175403   
N86      N      0.247840000000     0.995310000000     0.404800000000    -0.204516   
N87      N      0.275490000000     0.945970000000     0.402970000000    -0.214072   
N88      N      0.242760000000     0.494360000000     0.089300000000    -0.172708   
N89      N      0.243120000000     0.992340000000     0.154810000000    -0.203375   
N90      N      0.292080000000     0.964060000000     0.152690000000    -0.214112   
N91      N      0.494250000000     0.749040000000     0.339440000000    -0.17318    
N92      N      0.492480000000     0.747920000000     0.405020000000    -0.200809   
N93      N      0.444380000000     0.777720000000     0.403080000000    -0.213308   
N94      N      0.497680000000     0.743400000000     0.154830000000    -0.173104   
N95      N      0.998540000000     0.743830000000     0.089210000000    -0.202244   
N96      N      0.547300000000     0.772530000000     0.091200000000    -0.213304   
N97      N      0.086580000000     0.494670000000     0.248550000000    -0.172423   
N98      N      0.152030000000     0.493260000000     0.249580000000    -0.201405   
N99      N      0.149820000000     0.966690000000     0.299420000000    -0.213842   
N100     N      0.336530000000     0.495330000000     0.245680000000    -0.173406   
N101     N      0.402090000000     0.494590000000     0.245630000000    -0.201334   
N102     N      0.400460000000     0.944330000000     0.271650000000    -0.213375   
N103     N      0.994980000000     0.903900000000     0.243160000000    -0.176593   
N104     N      0.996080000000     0.838310000000     0.241710000000    -0.202828   
N105     N      0.468250000000     0.840000000000     0.192480000000    -0.213366   
N106     N      0.495500000000     0.588650000000     0.251230000000    -0.172773   
N107     N      0.996380000000     0.654240000000     0.252630000000    -0.202657   
N108     N      0.467170000000     0.652550000000     0.301040000000    -0.213272   
N109     N      0.402810000000     0.748200000000     0.496620000000    -0.173207   
N110     N      0.337340000000     0.750880000000     0.494160000000    -0.201623   
N111     N      0.339180000000     0.798110000000     0.525260000000    -0.212914   
N112     N      0.087550000000     0.745680000000     0.496950000000    -0.172407   
N113     N      0.153140000000     0.746830000000     0.498240000000    -0.200866   
N114     N      0.151620000000     0.795680000000     0.969620000000    -0.213012   
N115     N      0.241830000000     0.838880000000     0.997960000000    -0.176268   
N116     N      0.240830000000     0.904390000000     0.999340000000    -0.205431   
N117     N      0.265390000000     0.902720000000     0.550210000000    -0.213676   
N118     N      0.249140000000     0.588840000000     0.495300000000    -0.172936   
N119     N      0.250380000000     0.654410000000     0.994350000000    -0.203463   
N120     N      0.299730000000     0.652850000000     0.521920000000    -0.213349   
N121     N      0.247430000000     0.996230000000     0.839280000000    -0.175432   
N122     N      0.247840000000     0.995310000000     0.904800000000    -0.204468   
N123     N      0.275490000000     0.945970000000     0.902970000000    -0.214079   
N124     N      0.242760000000     0.494360000000     0.589300000000    -0.173244   
N125     N      0.243120000000     0.992340000000     0.654810000000    -0.203468   
N126     N      0.292080000000     0.964060000000     0.652690000000    -0.214107   
N127     N      0.494250000000     0.749040000000     0.839430000000    -0.173289   
N128     N      0.492480000000     0.747920000000     0.905020000000    -0.20066    
N129     N      0.444380000000     0.777720000000     0.903090000000    -0.213282   
N130     N      0.497680000000     0.743400000000     0.654830000000    -0.173138   
N131     N      0.998540000000     0.743830000000     0.589210000000    -0.202779   
N132     N      0.547300000000     0.772530000000     0.591200000000    -0.213234   
N133     N      0.086580000000     0.494670000000     0.748560000000    -0.172457   
N134     N      0.152030000000     0.493260000000     0.749580000000    -0.201412   
N135     N      0.149820000000     0.966690000000     0.799420000000    -0.213832   
N136     N      0.336530000000     0.495330000000     0.745680000000    -0.173425   
N137     N      0.402090000000     0.494590000000     0.745640000000    -0.201376   
N138     N      0.400460000000     0.944330000000     0.771650000000    -0.213394   
N139     N      0.994980000000     0.903900000000     0.743160000000    -0.176641   
N140     N      0.996080000000     0.838310000000     0.741710000000    -0.202825   
N141     N      0.468250000000     0.840000000000     0.692480000000    -0.213359   
N142     N      0.495500000000     0.588650000000     0.751230000000    -0.172816   
N143     N      0.996380000000     0.654240000000     0.752630000000    -0.202665   
N144     N      0.467170000000     0.652550000000     0.801040000000    -0.213266   
N145     N      0.902820000000     0.248200000000     0.996620000000    -0.175557   
N146     N      0.837340000000     0.250880000000     0.994160000000    -0.20428    
N147     N      0.839180000000     0.298110000000     0.025260000000    -0.213289   
N148     N      0.587550000000     0.245680000000     0.996950000000    -0.175165   
N149     N      0.653140000000     0.246820000000     0.998240000000    -0.203404   
N150     N      0.651620000000     0.295680000000     0.469620000000    -0.213013   
N151     N      0.741840000000     0.338880000000     0.497960000000    -0.173736   
N152     N      0.740830000000     0.404390000000     0.499340000000    -0.201749   
N153     N      0.765380000000     0.402710000000     0.050210000000    -0.214016   
N154     N      0.749140000000     0.088840000000     0.995300000000    -0.176303   
N155     N      0.750390000000     0.154410000000     0.494350000000    -0.200922   
N156     N      0.799730000000     0.152850000000     0.021920000000    -0.213698   
N157     N      0.747430000000     0.496230000000     0.339280000000    -0.173348   
N158     N      0.747840000000     0.495310000000     0.404800000000    -0.201426   
N159     N      0.775490000000     0.445970000000     0.402970000000    -0.214027   
N160     N      0.742760000000     0.994360000000     0.089300000000    -0.175933   
N161     N      0.743110000000     0.492340000000     0.154810000000    -0.201336   
N162     N      0.792080000000     0.464060000000     0.152690000000    -0.214122   
N163     N      0.994250000000     0.249040000000     0.339440000000    -0.175177   
N164     N      0.992480000000     0.247920000000     0.405020000000    -0.203773   
N165     N      0.944380000000     0.277720000000     0.403080000000    -0.21334    
N166     N      0.997670000000     0.243400000000     0.154830000000    -0.175167   
N167     N      0.498540000000     0.243820000000     0.089210000000    -0.200311   
N168     N      0.047300000000     0.272530000000     0.091200000000    -0.213545   
N169     N      0.586580000000     0.994670000000     0.248550000000    -0.176014   
N170     N      0.652030000000     0.993260000000     0.249580000000    -0.203522   
N171     N      0.649820000000     0.466690000000     0.299420000000    -0.213881   
N172     N      0.836520000000     0.995330000000     0.245680000000    -0.175608   
N173     N      0.902090000000     0.994590000000     0.245630000000    -0.203183   
N174     N      0.900460000000     0.444330000000     0.271650000000    -0.213458   
N175     N      0.494980000000     0.403900000000     0.243160000000    -0.173535   
N176     N      0.496080000000     0.338310000000     0.241710000000    -0.200811   
N177     N      0.968250000000     0.340000000000     0.192480000000    -0.213308   
N178     N      0.995500000000     0.088650000000     0.251230000000    -0.175366   
N179     N      0.496380000000     0.154240000000     0.252630000000    -0.200646   
N180     N      0.967170000000     0.152550000000     0.301040000000    -0.213221   
N181     N      0.902820000000     0.248200000000     0.496620000000    -0.173255   
N182     N      0.837340000000     0.250880000000     0.494160000000    -0.201611   
N183     N      0.839180000000     0.298110000000     0.525260000000    -0.212911   
N184     N      0.587550000000     0.245680000000     0.496950000000    -0.172848   
N185     N      0.653140000000     0.246820000000     0.498240000000    -0.200838   
N186     N      0.651620000000     0.295680000000     0.969620000000    -0.212978   
N187     N      0.741840000000     0.338880000000     0.997960000000    -0.176283   
N188     N      0.740830000000     0.404390000000     0.999340000000    -0.20555    
N189     N      0.765380000000     0.402710000000     0.550210000000    -0.213635   
N190     N      0.749140000000     0.088840000000     0.495300000000    -0.172486   
N191     N      0.750390000000     0.154410000000     0.994350000000    -0.203459   
N192     N      0.799730000000     0.152850000000     0.521920000000    -0.213363   
N193     N      0.747430000000     0.496230000000     0.839280000000    -0.173378   
N194     N      0.747840000000     0.495310000000     0.904800000000    -0.201378   
N195     N      0.775490000000     0.445970000000     0.902970000000    -0.214033   
N196     N      0.742760000000     0.994360000000     0.589300000000    -0.17648    
N197     N      0.743110000000     0.492340000000     0.654810000000    -0.201423   
N198     N      0.792080000000     0.464060000000     0.652690000000    -0.214117   
N199     N      0.994250000000     0.249040000000     0.839430000000    -0.175282   
N200     N      0.992480000000     0.247920000000     0.905020000000    -0.203622   
N201     N      0.944380000000     0.277720000000     0.903090000000    -0.213314   
N202     N      0.997670000000     0.243400000000     0.654830000000    -0.175205   
N203     N      0.498540000000     0.243820000000     0.589210000000    -0.200843   
N204     N      0.047300000000     0.272530000000     0.591200000000    -0.213477   
N205     N      0.586580000000     0.994670000000     0.748560000000    -0.176053   
N206     N      0.652030000000     0.993260000000     0.749580000000    -0.203534   
N207     N      0.649820000000     0.466690000000     0.799420000000    -0.21387    
N208     N      0.836520000000     0.995330000000     0.745680000000    -0.17563    
N209     N      0.902090000000     0.994590000000     0.745640000000    -0.203224   
N210     N      0.900460000000     0.444330000000     0.771650000000    -0.213478   
N211     N      0.494980000000     0.403900000000     0.743160000000    -0.173581   
N212     N      0.496080000000     0.338310000000     0.741710000000    -0.200806   
N213     N      0.968250000000     0.340000000000     0.692480000000    -0.213301   
N214     N      0.995500000000     0.088650000000     0.751230000000    -0.175411   
N215     N      0.496380000000     0.154240000000     0.752630000000    -0.200651   
N216     N      0.967170000000     0.152550000000     0.801040000000    -0.213215   
N217     N      0.902820000000     0.748200000000     0.996620000000    -0.175592   
N218     N      0.837340000000     0.750880000000     0.994160000000    -0.204287   
N219     N      0.839180000000     0.798110000000     0.025260000000    -0.213285   
N220     N      0.587550000000     0.745680000000     0.996950000000    -0.175212   
N221     N      0.653140000000     0.746830000000     0.998240000000    -0.203421   
N222     N      0.651620000000     0.795680000000     0.469620000000    -0.213037   
N223     N      0.741840000000     0.838880000000     0.497960000000    -0.173751   
N224     N      0.740830000000     0.904390000000     0.499340000000    -0.201667   
N225     N      0.765380000000     0.902720000000     0.050210000000    -0.214026   
N226     N      0.749140000000     0.588840000000     0.995300000000    -0.176802   
N227     N      0.750390000000     0.654410000000     0.494350000000    -0.200926   
N228     N      0.799730000000     0.652850000000     0.021920000000    -0.213691   
N229     N      0.747430000000     0.996230000000     0.339280000000    -0.175421   
N230     N      0.747840000000     0.995310000000     0.404800000000    -0.204551   
N231     N      0.775490000000     0.945970000000     0.402970000000    -0.214053   
N232     N      0.742760000000     0.494360000000     0.089300000000    -0.172743   
N233     N      0.743110000000     0.992340000000     0.154810000000    -0.20338    
N234     N      0.792080000000     0.964060000000     0.152690000000    -0.214081   
N235     N      0.994250000000     0.749040000000     0.339440000000    -0.175199   
N236     N      0.992480000000     0.747920000000     0.405020000000    -0.203809   
N237     N      0.944380000000     0.777720000000     0.403080000000    -0.213349   
N238     N      0.997670000000     0.743400000000     0.154830000000    -0.175191   
N239     N      0.498540000000     0.743830000000     0.089210000000    -0.200348   
N240     N      0.047300000000     0.772530000000     0.091200000000    -0.213564   
N241     N      0.586580000000     0.494670000000     0.248550000000    -0.172885   
N242     N      0.652030000000     0.493260000000     0.249580000000    -0.201421   
N243     N      0.649820000000     0.966690000000     0.299420000000    -0.213842   
N244     N      0.836520000000     0.495330000000     0.245680000000    -0.1735     
N245     N      0.902090000000     0.494590000000     0.245630000000    -0.20128    
N246     N      0.900460000000     0.944330000000     0.271650000000    -0.213378   
N247     N      0.494980000000     0.903900000000     0.243160000000    -0.173469   
N248     N      0.496080000000     0.838310000000     0.241710000000    -0.20081    
N249     N      0.968250000000     0.840000000000     0.192480000000    -0.213304   
N250     N      0.995500000000     0.588650000000     0.251230000000    -0.1759     
N251     N      0.496380000000     0.654240000000     0.252630000000    -0.200655   
N252     N      0.967170000000     0.652550000000     0.301040000000    -0.213217   
N253     N      0.902820000000     0.748200000000     0.496620000000    -0.173288   
N254     N      0.837340000000     0.750880000000     0.494160000000    -0.201616   
N255     N      0.839180000000     0.798110000000     0.525260000000    -0.212907   
N256     N      0.587550000000     0.745680000000     0.496950000000    -0.172892   
N257     N      0.653140000000     0.746830000000     0.498240000000    -0.200853   
N258     N      0.651620000000     0.795680000000     0.969620000000    -0.213001   
N259     N      0.741840000000     0.838880000000     0.997960000000    -0.176298   
N260     N      0.740830000000     0.904390000000     0.999340000000    -0.205465   
N261     N      0.765380000000     0.902720000000     0.550210000000    -0.213647   
N262     N      0.749140000000     0.588840000000     0.495300000000    -0.17297    
N263     N      0.750390000000     0.654410000000     0.994350000000    -0.203471   
N264     N      0.799730000000     0.652850000000     0.521920000000    -0.213355   
N265     N      0.747430000000     0.996230000000     0.839280000000    -0.175451   
N266     N      0.747840000000     0.995310000000     0.904800000000    -0.204503   
N267     N      0.775490000000     0.945970000000     0.902970000000    -0.214059   
N268     N      0.742760000000     0.494360000000     0.589300000000    -0.173279   
N269     N      0.743110000000     0.992340000000     0.654810000000    -0.203473   
N270     N      0.792080000000     0.964060000000     0.652690000000    -0.214076   
N271     N      0.994250000000     0.749040000000     0.839430000000    -0.175304   
N272     N      0.992480000000     0.747920000000     0.905020000000    -0.203658   
N273     N      0.944380000000     0.777720000000     0.903090000000    -0.213324   
N274     N      0.997670000000     0.743400000000     0.654830000000    -0.17523    
N275     N      0.498540000000     0.743830000000     0.589210000000    -0.200881   
N276     N      0.047300000000     0.772530000000     0.591200000000    -0.213496   
N277     N      0.586580000000     0.494670000000     0.748560000000    -0.17292    
N278     N      0.652030000000     0.493260000000     0.749580000000    -0.201428   
N279     N      0.649820000000     0.966690000000     0.799420000000    -0.213831   
N280     N      0.836520000000     0.495330000000     0.745680000000    -0.173519   
N281     N      0.902090000000     0.494590000000     0.745640000000    -0.201322   
N282     N      0.900460000000     0.944330000000     0.771650000000    -0.213397   
N283     N      0.494980000000     0.903900000000     0.743160000000    -0.173515   
N284     N      0.496080000000     0.838310000000     0.741710000000    -0.200806   
N285     N      0.968250000000     0.840000000000     0.692480000000    -0.213297   
N286     N      0.995500000000     0.588650000000     0.751230000000    -0.175946   
N287     N      0.496380000000     0.654240000000     0.752630000000    -0.200661   
N288     N      0.967170000000     0.652550000000     0.801040000000    -0.21321    
Ni1      Ni     0.493830000000     0.994700000000     0.275180000000     0.999139   
Ni2      Ni     0.994610000000     0.997840000000     0.219140000000     0.983008   
Ni3      Ni     0.468030000000     0.246200000000     0.246620000000     0.991324   
Ni4      Ni     0.023910000000     0.246340000000     0.247660000000     1.00942    
Ni5      Ni     0.244770000000     0.466320000000     0.247890000000     1.00955    
Ni6      Ni     0.243380000000     0.022570000000     0.245950000000     1.00468    
Ni7      Ni     0.273150000000     0.994860000000     0.998060000000     0.993598   
Ni8      Ni     0.217010000000     0.998020000000     0.495770000000     0.995467   
Ni9      Ni     0.994800000000     0.218260000000     0.996550000000     0.97288    
Ni10     Ni     0.995500000000     0.274170000000     0.497720000000     0.990244   
Ni11     Ni     0.246220000000     0.246000000000     0.024140000000     1.0071     
Ni12     Ni     0.244360000000     0.246960000000     0.468010000000     1.00109    
Ni13     Ni     0.493830000000     0.994700000000     0.775180000000     0.998942   
Ni14     Ni     0.994610000000     0.997840000000     0.719140000000     0.982568   
Ni15     Ni     0.468030000000     0.246200000000     0.746620000000     0.991314   
Ni16     Ni     0.023910000000     0.246340000000     0.747660000000     1.00939    
Ni17     Ni     0.244770000000     0.466320000000     0.747890000000     1.00932    
Ni18     Ni     0.243380000000     0.022570000000     0.745950000000     1.00467    
Ni19     Ni     0.273150000000     0.994860000000     0.498060000000     1.00134    
Ni20     Ni     0.217010000000     0.998020000000     0.995760000000     0.988163   
Ni21     Ni     0.994800000000     0.218260000000     0.496550000000     0.987501   
Ni22     Ni     0.995500000000     0.274170000000     0.997720000000     0.975587   
Ni23     Ni     0.246220000000     0.246000000000     0.524140000000     1.00274    
Ni24     Ni     0.244360000000     0.246960000000     0.968010000000     0.99197    
Ni25     Ni     0.493830000000     0.494700000000     0.275180000000     1.00468    
Ni26     Ni     0.994610000000     0.497840000000     0.219140000000     0.995719   
Ni27     Ni     0.468030000000     0.746200000000     0.246620000000     0.991305   
Ni28     Ni     0.023910000000     0.746330000000     0.247660000000     1.00938    
Ni29     Ni     0.244770000000     0.966320000000     0.247890000000     1.00199    
Ni30     Ni     0.243380000000     0.522570000000     0.245950000000     1.00088    
Ni31     Ni     0.273150000000     0.494860000000     0.998060000000     0.999495   
Ni32     Ni     0.217010000000     0.498020000000     0.495770000000     1.0018     
Ni33     Ni     0.994800000000     0.718260000000     0.996550000000     0.972409   
Ni34     Ni     0.995500000000     0.774170000000     0.497720000000     0.990139   
Ni35     Ni     0.246220000000     0.746000000000     0.024140000000     1.00707    
Ni36     Ni     0.244360000000     0.746960000000     0.468010000000     1.00106    
Ni37     Ni     0.493830000000     0.494700000000     0.775180000000     1.00448    
Ni38     Ni     0.994610000000     0.497840000000     0.719140000000     0.995303   
Ni39     Ni     0.468030000000     0.746200000000     0.746620000000     0.991295   
Ni40     Ni     0.023910000000     0.746330000000     0.747660000000     1.00935    
Ni41     Ni     0.244770000000     0.966320000000     0.747890000000     1.00176    
Ni42     Ni     0.243380000000     0.522570000000     0.745950000000     1.00086    
Ni43     Ni     0.273150000000     0.494860000000     0.498060000000     1.00726    
Ni44     Ni     0.217010000000     0.498020000000     0.995760000000     0.994471   
Ni45     Ni     0.994800000000     0.718260000000     0.496550000000     0.987055   
Ni46     Ni     0.995500000000     0.774170000000     0.997720000000     0.975473   
Ni47     Ni     0.246220000000     0.746000000000     0.524140000000     1.0027     
Ni48     Ni     0.244360000000     0.746960000000     0.968010000000     0.991927   
Ni49     Ni     0.993830000000     0.994700000000     0.275180000000     0.993378   
Ni50     Ni     0.494610000000     0.997840000000     0.219140000000     0.989025   
Ni51     Ni     0.968030000000     0.246200000000     0.246620000000     0.983813   
Ni52     Ni     0.523910000000     0.246340000000     0.247660000000     1.00572    
Ni53     Ni     0.744770000000     0.466320000000     0.247890000000     1.00954    
Ni54     Ni     0.743380000000     0.022570000000     0.245950000000     1.00465    
Ni55     Ni     0.773150000000     0.994860000000     0.998060000000     0.993518   
Ni56     Ni     0.717010000000     0.998020000000     0.495770000000     0.995031   
Ni57     Ni     0.494800000000     0.218260000000     0.996550000000     0.978521   
Ni58     Ni     0.495500000000     0.274170000000     0.497720000000     1.00258    
Ni59     Ni     0.746220000000     0.246000000000     0.024140000000     1.00705    
Ni60     Ni     0.744360000000     0.246960000000     0.468010000000     1.00125    
Ni61     Ni     0.993830000000     0.994700000000     0.775180000000     0.993184   
Ni62     Ni     0.494610000000     0.997840000000     0.719140000000     0.988591   
Ni63     Ni     0.968030000000     0.246200000000     0.746620000000     0.983797   
Ni64     Ni     0.523910000000     0.246340000000     0.747660000000     1.00569    
Ni65     Ni     0.744770000000     0.466320000000     0.747890000000     1.00931    
Ni66     Ni     0.743380000000     0.022570000000     0.745950000000     1.00464    
Ni67     Ni     0.773150000000     0.994860000000     0.498060000000     1.00126    
Ni68     Ni     0.717010000000     0.998020000000     0.995760000000     0.987719   
Ni69     Ni     0.494800000000     0.218260000000     0.496550000000     0.99321    
Ni70     Ni     0.495500000000     0.274170000000     0.997720000000     0.987842   
Ni71     Ni     0.746220000000     0.246000000000     0.524140000000     1.00268    
Ni72     Ni     0.744360000000     0.246960000000     0.968010000000     0.992121   
Ni73     Ni     0.993830000000     0.494700000000     0.275180000000     0.998906   
Ni74     Ni     0.494610000000     0.497840000000     0.219140000000     1.00174    
Ni75     Ni     0.968030000000     0.746200000000     0.246620000000     0.983776   
Ni76     Ni     0.523910000000     0.746330000000     0.247660000000     1.00566    
Ni77     Ni     0.744770000000     0.966320000000     0.247890000000     1.00197    
Ni78     Ni     0.743380000000     0.522570000000     0.245950000000     1.00084    
Ni79     Ni     0.773150000000     0.494860000000     0.998060000000     0.999422   
Ni80     Ni     0.717010000000     0.498020000000     0.495770000000     1.00138    
Ni81     Ni     0.494800000000     0.718260000000     0.996550000000     0.978065   
Ni82     Ni     0.495500000000     0.774170000000     0.497720000000     1.00249    
Ni83     Ni     0.746220000000     0.746000000000     0.024140000000     1.00702    
Ni84     Ni     0.744360000000     0.746960000000     0.468010000000     1.00122    
Ni85     Ni     0.993830000000     0.494700000000     0.775180000000     0.998712   
Ni86     Ni     0.494610000000     0.497840000000     0.719140000000     1.00134    
Ni87     Ni     0.968030000000     0.746200000000     0.746620000000     0.98376    
Ni88     Ni     0.523910000000     0.746330000000     0.747660000000     1.00563    
Ni89     Ni     0.744770000000     0.966320000000     0.747890000000     1.00173    
Ni90     Ni     0.743380000000     0.522570000000     0.745950000000     1.00081    
Ni91     Ni     0.773150000000     0.494860000000     0.498060000000     1.00719    
Ni92     Ni     0.717010000000     0.498020000000     0.995760000000     0.994043   
Ni93     Ni     0.494800000000     0.718260000000     0.496550000000     0.992779   
Ni94     Ni     0.495500000000     0.774170000000     0.997720000000     0.98775    
Ni95     Ni     0.746220000000     0.746000000000     0.524140000000     1.00264    
Ni96     Ni     0.744360000000     0.746960000000     0.968010000000     0.992078   
O1       O      0.448790000000     0.492620000000     0.272480000000    -0.450907   
O2       O      0.038950000000     0.995830000000     0.274100000000    -0.44261    
O3       O      0.491790000000     0.040120000000     0.275300000000    -0.439347   
O4       O      0.996060000000     0.449930000000     0.271270000000    -0.453442   
O5       O      0.492120000000     0.452420000000     0.218970000000    -0.4445     
O6       O      0.997180000000     0.042600000000     0.223130000000    -0.44422    
O7       O      0.039720000000     0.496010000000     0.221580000000    -0.441092   
O8       O      0.449440000000     0.000240000000     0.220480000000    -0.43754    
O9       O      0.470030000000     0.201410000000     0.253060000000    -0.447128   
O10      O      0.470010000000     0.290990000000     0.240250000000    -0.447956   
O11      O      0.470860000000     0.240080000000     0.201810000000    -0.445025   
O12      O      0.469270000000     0.252350000000     0.291480000000    -0.445427   
O13      O      0.021140000000     0.244540000000     0.292700000000    -0.441746   
O14      O      0.022700000000     0.248100000000     0.202550000000    -0.441835   
O15      O      0.021770000000     0.291470000000     0.249200000000    -0.443009   
O16      O      0.022080000000     0.201200000000     0.246030000000    -0.442707   
O17      O      0.289600000000     0.468840000000     0.246980000000    -0.454514   
O18      O      0.199480000000     0.467510000000     0.249710000000    -0.449975   
O19      O      0.243860000000     0.467080000000     0.202560000000    -0.450643   
O20      O      0.246640000000     0.469240000000     0.292650000000    -0.453862   
O21      O      0.244200000000     0.021720000000     0.291430000000    -0.438136   
O22      O      0.241800000000     0.019650000000     0.201040000000    -0.443648   
O23      O      0.198450000000     0.020060000000     0.246690000000    -0.444222   
O24      O      0.288830000000     0.021310000000     0.244440000000    -0.437896   
O25      O      0.269960000000     0.494770000000     0.042810000000    -0.447872   
O26      O      0.272670000000     0.994070000000     0.452750000000    -0.450804   
O27      O      0.273340000000     0.040320000000     0.998010000000    -0.441322   
O28      O      0.269190000000     0.450010000000     0.498970000000    -0.455436   
O29      O      0.216760000000     0.452570000000     0.995480000000    -0.447875   
O30      O      0.220950000000     0.042840000000     0.495240000000    -0.443571   
O31      O      0.220280000000     0.498330000000     0.450840000000    -0.449933   
O32      O      0.217590000000     0.998260000000     0.041300000000    -0.438614   
O33      O      0.491610000000     0.219250000000     0.041660000000    -0.439803   
O34      O      0.998050000000     0.221190000000     0.451550000000    -0.447801   
O35      O      0.040020000000     0.219630000000     0.000020000000    -0.425277   
O36      O      0.449660000000     0.221050000000     0.493120000000    -0.443657   
O37      O      0.450630000000     0.272760000000     0.002140000000    -0.436906   
O38      O      0.040310000000     0.271680000000     0.493190000000    -0.444179   
O39      O      0.490770000000     0.273230000000     0.452740000000    -0.449133   
O40      O      0.000190000000     0.271100000000     0.042590000000    -0.433127   
O41      O      0.250580000000     0.201080000000     0.021380000000    -0.442823   
O42      O      0.242870000000     0.291030000000     0.023110000000    -0.443349   
O43      O      0.200910000000     0.242060000000     0.023200000000    -0.43844    
O44      O      0.290910000000     0.250310000000     0.021280000000    -0.447544   
O45      O      0.289770000000     0.246360000000     0.468870000000    -0.447414   
O46      O      0.199490000000     0.247740000000     0.470960000000    -0.451026   
O47      O      0.244080000000     0.292170000000     0.470610000000    -0.449046   
O48      O      0.243940000000     0.201720000000     0.469240000000    -0.447629   
O49      O      0.448790000000     0.492620000000     0.772480000000    -0.450892   
O50      O      0.038950000000     0.995830000000     0.774100000000    -0.44269    
O51      O      0.491790000000     0.040120000000     0.775300000000    -0.439444   
O52      O      0.996060000000     0.449930000000     0.771270000000    -0.453519   
O53      O      0.492120000000     0.452420000000     0.718970000000    -0.444665   
O54      O      0.997180000000     0.042600000000     0.723130000000    -0.44435    
O55      O      0.039720000000     0.496010000000     0.721580000000    -0.441252   
O56      O      0.449440000000     0.000240000000     0.720480000000    -0.437779   
O57      O      0.470030000000     0.201410000000     0.753060000000    -0.447161   
O58      O      0.470010000000     0.290990000000     0.740250000000    -0.447972   
O59      O      0.470860000000     0.240080000000     0.701810000000    -0.445082   
O60      O      0.469270000000     0.252350000000     0.791480000000    -0.445478   
O61      O      0.021140000000     0.244540000000     0.792700000000    -0.441798   
O62      O      0.022700000000     0.248100000000     0.702550000000    -0.441893   
O63      O      0.021770000000     0.291470000000     0.749200000000    -0.443041   
O64      O      0.022080000000     0.201200000000     0.746030000000    -0.442746   
O65      O      0.289600000000     0.468840000000     0.746980000000    -0.454508   
O66      O      0.199480000000     0.467510000000     0.749720000000    -0.449986   
O67      O      0.243860000000     0.467080000000     0.702560000000    -0.4506     
O68      O      0.246640000000     0.469240000000     0.792660000000    -0.453787   
O69      O      0.244200000000     0.021720000000     0.791430000000    -0.43819    
O70      O      0.241800000000     0.019650000000     0.701040000000    -0.443651   
O71      O      0.198450000000     0.020060000000     0.746690000000    -0.444254   
O72      O      0.288830000000     0.021310000000     0.744440000000    -0.437935   
O73      O      0.269960000000     0.494770000000     0.542810000000    -0.453648   
O74      O      0.272670000000     0.994070000000     0.952750000000    -0.449862   
O75      O      0.273340000000     0.040320000000     0.498010000000    -0.439762   
O76      O      0.269190000000     0.450010000000     0.998970000000    -0.456909   
O77      O      0.216760000000     0.452570000000     0.495470000000    -0.447169   
O78      O      0.220950000000     0.042840000000     0.995240000000    -0.444148   
O79      O      0.220280000000     0.498330000000     0.950830000000    -0.448897   
O80      O      0.217590000000     0.998260000000     0.541300000000    -0.444703   
O81      O      0.491610000000     0.219250000000     0.541650000000    -0.446203   
O82      O      0.998050000000     0.221190000000     0.951550000000    -0.446263   
O83      O      0.040020000000     0.219630000000     0.500020000000    -0.437896   
O84      O      0.449660000000     0.221050000000     0.993120000000    -0.44077    
O85      O      0.450630000000     0.272760000000     0.502140000000    -0.449606   
O86      O      0.040310000000     0.271680000000     0.993190000000    -0.441255   
O87      O      0.490770000000     0.273230000000     0.952740000000    -0.447573   
O88      O      0.000190000000     0.271100000000     0.542590000000    -0.439285   
O89      O      0.250580000000     0.201080000000     0.521380000000    -0.449333   
O90      O      0.242870000000     0.291030000000     0.523110000000    -0.449928   
O91      O      0.200910000000     0.242060000000     0.523200000000    -0.44526    
O92      O      0.290910000000     0.250310000000     0.521280000000    -0.453758   
O93      O      0.289770000000     0.246360000000     0.968880000000    -0.445415   
O94      O      0.199490000000     0.247740000000     0.970960000000    -0.448557   
O95      O      0.244080000000     0.292170000000     0.970610000000    -0.44672    
O96      O      0.243940000000     0.201720000000     0.969240000000    -0.445374   
O97      O      0.448790000000     0.992620000000     0.272480000000    -0.449605   
O98      O      0.038950000000     0.495840000000     0.274100000000    -0.442221   
O99      O      0.491790000000     0.540120000000     0.275300000000    -0.444284   
O100     O      0.996060000000     0.949930000000     0.271270000000    -0.452491   
O101     O      0.492120000000     0.952420000000     0.218970000000    -0.443272   
O102     O      0.997180000000     0.542600000000     0.223130000000    -0.449508   
O103     O      0.039720000000     0.996010000000     0.221580000000    -0.441284   
O104     O      0.449440000000     0.500240000000     0.220480000000    -0.448176   
O105     O      0.470030000000     0.701410000000     0.253060000000    -0.447204   
O106     O      0.470010000000     0.790990000000     0.240250000000    -0.447942   
O107     O      0.470860000000     0.740080000000     0.201810000000    -0.445061   
O108     O      0.469270000000     0.752350000000     0.291480000000    -0.445448   
O109     O      0.021140000000     0.744540000000     0.292700000000    -0.441776   
O110     O      0.022700000000     0.748100000000     0.202550000000    -0.441854   
O111     O      0.021770000000     0.791470000000     0.249200000000    -0.442901   
O112     O      0.022080000000     0.701200000000     0.246030000000    -0.442895   
O113     O      0.289600000000     0.968830000000     0.246980000000    -0.452272   
O114     O      0.199480000000     0.967520000000     0.249710000000    -0.448261   
O115     O      0.243860000000     0.967080000000     0.202560000000    -0.448757   
O116     O      0.246640000000     0.969240000000     0.292650000000    -0.451768   
O117     O      0.244200000000     0.521720000000     0.291430000000    -0.443778   
O118     O      0.241800000000     0.519650000000     0.201040000000    -0.449152   
O119     O      0.198450000000     0.520060000000     0.246690000000    -0.449667   
O120     O      0.288830000000     0.521310000000     0.244440000000    -0.443584   
O121     O      0.269960000000     0.994770000000     0.042810000000    -0.448341   
O122     O      0.272670000000     0.494070000000     0.452750000000    -0.45025    
O123     O      0.273340000000     0.540320000000     0.998010000000    -0.446303   
O124     O      0.269190000000     0.950010000000     0.498970000000    -0.454478   
O125     O      0.216760000000     0.952570000000     0.995480000000    -0.447075   
O126     O      0.220950000000     0.542840000000     0.495240000000    -0.448436   
O127     O      0.220280000000     0.998330000000     0.450840000000    -0.451032   
O128     O      0.217590000000     0.498260000000     0.041300000000    -0.437288   
O129     O      0.491610000000     0.719250000000     0.041660000000    -0.439943   
O130     O      0.998050000000     0.721190000000     0.451550000000    -0.44795    
O131     O      0.040020000000     0.719630000000     0.000020000000    -0.42538    
O132     O      0.449660000000     0.721050000000     0.493120000000    -0.443791   
O133     O      0.450630000000     0.772760000000     0.002140000000    -0.436955   
O134     O      0.040310000000     0.771680000000     0.493190000000    -0.444238   
O135     O      0.490770000000     0.773230000000     0.452740000000    -0.4492     
O136     O      0.000190000000     0.771100000000     0.042590000000    -0.433164   
O137     O      0.250580000000     0.701080000000     0.021380000000    -0.442877   
O138     O      0.242870000000     0.791030000000     0.023110000000    -0.443362   
O139     O      0.200910000000     0.742060000000     0.023200000000    -0.438475   
O140     O      0.290910000000     0.750310000000     0.021280000000    -0.447555   
O141     O      0.289770000000     0.746360000000     0.468870000000    -0.447447   
O142     O      0.199490000000     0.747740000000     0.470960000000    -0.451067   
O143     O      0.244080000000     0.792170000000     0.470610000000    -0.44905    
O144     O      0.243940000000     0.701720000000     0.469240000000    -0.447713   
O145     O      0.448790000000     0.992620000000     0.772480000000    -0.449586   
O146     O      0.038950000000     0.495840000000     0.774100000000    -0.442301   
O147     O      0.491790000000     0.540120000000     0.775300000000    -0.444387   
O148     O      0.996060000000     0.949930000000     0.771270000000    -0.452567   
O149     O      0.492120000000     0.952420000000     0.718970000000    -0.443435   
O150     O      0.997180000000     0.542600000000     0.723130000000    -0.449649   
O151     O      0.039720000000     0.996010000000     0.721580000000    -0.441442   
O152     O      0.449440000000     0.500240000000     0.720480000000    -0.448443   
O153     O      0.470030000000     0.701410000000     0.753060000000    -0.447238   
O154     O      0.470010000000     0.790990000000     0.740250000000    -0.447958   
O155     O      0.470860000000     0.740080000000     0.701810000000    -0.445118   
O156     O      0.469270000000     0.752350000000     0.791480000000    -0.445499   
O157     O      0.021140000000     0.744540000000     0.792700000000    -0.441828   
O158     O      0.022700000000     0.748100000000     0.702550000000    -0.441912   
O159     O      0.021770000000     0.791470000000     0.749200000000    -0.442933   
O160     O      0.022080000000     0.701200000000     0.746030000000    -0.442935   
O161     O      0.289600000000     0.968830000000     0.746980000000    -0.452262   
O162     O      0.199480000000     0.967520000000     0.749720000000    -0.448269   
O163     O      0.243860000000     0.967080000000     0.702560000000    -0.448712   
O164     O      0.246640000000     0.969240000000     0.792660000000    -0.45169    
O165     O      0.244200000000     0.521720000000     0.791430000000    -0.443839   
O166     O      0.241800000000     0.519650000000     0.701040000000    -0.449167   
O167     O      0.198450000000     0.520060000000     0.746690000000    -0.449708   
O168     O      0.288830000000     0.521310000000     0.744440000000    -0.443634   
O169     O      0.269960000000     0.994770000000     0.542810000000    -0.454111   
O170     O      0.272670000000     0.494070000000     0.952750000000    -0.449307   
O171     O      0.273340000000     0.540320000000     0.498010000000    -0.444742   
O172     O      0.269190000000     0.950010000000     0.998970000000    -0.455952   
O173     O      0.216760000000     0.952570000000     0.495470000000    -0.446369   
O174     O      0.220950000000     0.542840000000     0.995240000000    -0.44901    
O175     O      0.220280000000     0.998330000000     0.950830000000    -0.449997   
O176     O      0.217590000000     0.498260000000     0.541300000000    -0.443382   
O177     O      0.491610000000     0.719250000000     0.541650000000    -0.446356   
O178     O      0.998050000000     0.721190000000     0.951550000000    -0.446409   
O179     O      0.040020000000     0.719630000000     0.500020000000    -0.438022   
O180     O      0.449660000000     0.721050000000     0.993120000000    -0.440899   
O181     O      0.450630000000     0.772760000000     0.502140000000    -0.449671   
O182     O      0.040310000000     0.771680000000     0.993190000000    -0.441309   
O183     O      0.490770000000     0.773230000000     0.952740000000    -0.447637   
O184     O      0.000190000000     0.771100000000     0.542590000000    -0.439328   
O185     O      0.250580000000     0.701080000000     0.521380000000    -0.4494     
O186     O      0.242870000000     0.791030000000     0.523110000000    -0.449947   
O187     O      0.200910000000     0.742060000000     0.523200000000    -0.445306   
O188     O      0.290910000000     0.750310000000     0.521280000000    -0.453777   
O189     O      0.289770000000     0.746360000000     0.968880000000    -0.445445   
O190     O      0.199490000000     0.747740000000     0.970960000000    -0.448594   
O191     O      0.244080000000     0.792170000000     0.970610000000    -0.446722   
O192     O      0.243940000000     0.701720000000     0.969240000000    -0.445454   
O193     O      0.948800000000     0.492620000000     0.272480000000    -0.450103   
O194     O      0.538950000000     0.995830000000     0.274100000000    -0.447441   
O195     O      0.991790000000     0.040120000000     0.275300000000    -0.439743   
O196     O      0.496060000000     0.449930000000     0.271270000000    -0.452113   
O197     O      0.992120000000     0.452420000000     0.218970000000    -0.444885   
O198     O      0.497180000000     0.042600000000     0.223130000000    -0.4429     
O199     O      0.539720000000     0.496010000000     0.221580000000    -0.445939   
O200     O      0.949440000000     0.000240000000     0.220480000000    -0.436673   
O201     O      0.970030000000     0.201410000000     0.253060000000    -0.445149   
O202     O      0.970010000000     0.290990000000     0.240250000000    -0.445971   
O203     O      0.970850000000     0.240080000000     0.201810000000    -0.442964   
O204     O      0.969260000000     0.252350000000     0.291480000000    -0.44335    
O205     O      0.521140000000     0.244540000000     0.292700000000    -0.447261   
O206     O      0.522700000000     0.248100000000     0.202550000000    -0.447313   
O207     O      0.521770000000     0.291470000000     0.249200000000    -0.448473   
O208     O      0.522080000000     0.201200000000     0.246030000000    -0.448171   
O209     O      0.789600000000     0.468840000000     0.246980000000    -0.454553   
O210     O      0.699480000000     0.467510000000     0.249710000000    -0.450046   
O211     O      0.743860000000     0.467080000000     0.202560000000    -0.45068    
O212     O      0.746640000000     0.469240000000     0.292650000000    -0.453885   
O213     O      0.744200000000     0.021720000000     0.291430000000    -0.438158   
O214     O      0.741800000000     0.019650000000     0.201040000000    -0.443664   
O215     O      0.698450000000     0.020060000000     0.246690000000    -0.444286   
O216     O      0.788830000000     0.021310000000     0.244440000000    -0.437934   
O217     O      0.769960000000     0.494770000000     0.042810000000    -0.447933   
O218     O      0.772670000000     0.994070000000     0.452750000000    -0.450877   
O219     O      0.773340000000     0.040320000000     0.998010000000    -0.441388   
O220     O      0.769190000000     0.450010000000     0.498970000000    -0.455495   
O221     O      0.716760000000     0.452570000000     0.995480000000    -0.448033   
O222     O      0.720950000000     0.042840000000     0.495240000000    -0.44368    
O223     O      0.720280000000     0.498330000000     0.450840000000    -0.450066   
O224     O      0.717590000000     0.998260000000     0.041300000000    -0.438754   
O225     O      0.991620000000     0.219250000000     0.041660000000    -0.438535   
O226     O      0.498040000000     0.221190000000     0.451550000000    -0.446744   
O227     O      0.540020000000     0.219630000000     0.000020000000    -0.430019   
O228     O      0.949650000000     0.221050000000     0.493120000000    -0.442715   
O229     O      0.950630000000     0.272760000000     0.002140000000    -0.435609   
O230     O      0.540310000000     0.271680000000     0.493190000000    -0.449401   
O231     O      0.990770000000     0.273230000000     0.452740000000    -0.448538   
O232     O      0.500190000000     0.271100000000     0.042590000000    -0.443371   
O233     O      0.750580000000     0.201080000000     0.021380000000    -0.442833   
O234     O      0.742870000000     0.291030000000     0.023110000000    -0.443371   
O235     O      0.700910000000     0.242060000000     0.023200000000    -0.438486   
O236     O      0.790910000000     0.250310000000     0.021280000000    -0.447519   
O237     O      0.789760000000     0.246360000000     0.468870000000    -0.447493   
O238     O      0.699490000000     0.247740000000     0.470960000000    -0.451113   
O239     O      0.744080000000     0.292170000000     0.470610000000    -0.44908    
O240     O      0.743930000000     0.201720000000     0.469240000000    -0.447654   
O241     O      0.948800000000     0.492620000000     0.772480000000    -0.450088   
O242     O      0.538950000000     0.995830000000     0.774100000000    -0.447524   
O243     O      0.991790000000     0.040120000000     0.775300000000    -0.439839   
O244     O      0.496060000000     0.449930000000     0.771270000000    -0.45219    
O245     O      0.992120000000     0.452420000000     0.718970000000    -0.44505    
O246     O      0.497180000000     0.042600000000     0.723130000000    -0.443029   
O247     O      0.539720000000     0.496010000000     0.721580000000    -0.446105   
O248     O      0.949440000000     0.000240000000     0.720480000000    -0.436912   
O249     O      0.970030000000     0.201410000000     0.753060000000    -0.445182   
O250     O      0.970010000000     0.290990000000     0.740250000000    -0.445986   
O251     O      0.970850000000     0.240080000000     0.701810000000    -0.443018   
O252     O      0.969260000000     0.252350000000     0.791480000000    -0.4434     
O253     O      0.521140000000     0.244540000000     0.792700000000    -0.447314   
O254     O      0.522700000000     0.248100000000     0.702550000000    -0.44738    
O255     O      0.521770000000     0.291470000000     0.749200000000    -0.448511   
O256     O      0.522080000000     0.201200000000     0.746030000000    -0.448217   
O257     O      0.789600000000     0.468840000000     0.746980000000    -0.454547   
O258     O      0.699480000000     0.467510000000     0.749720000000    -0.450057   
O259     O      0.743860000000     0.467080000000     0.702560000000    -0.450637   
O260     O      0.746640000000     0.469240000000     0.792660000000    -0.45381    
O261     O      0.744200000000     0.021720000000     0.791430000000    -0.438213   
O262     O      0.741800000000     0.019650000000     0.701040000000    -0.443667   
O263     O      0.698450000000     0.020060000000     0.746690000000    -0.444318   
O264     O      0.788830000000     0.021310000000     0.744440000000    -0.437973   
O265     O      0.769960000000     0.494770000000     0.542810000000    -0.453713   
O266     O      0.772670000000     0.994070000000     0.952750000000    -0.449934   
O267     O      0.773340000000     0.040320000000     0.498010000000    -0.439828   
O268     O      0.769190000000     0.450010000000     0.998970000000    -0.456968   
O269     O      0.716760000000     0.452570000000     0.495470000000    -0.447327   
O270     O      0.720950000000     0.042840000000     0.995240000000    -0.444258   
O271     O      0.720280000000     0.498330000000     0.950830000000    -0.449029   
O272     O      0.717590000000     0.998260000000     0.541300000000    -0.444852   
O273     O      0.991620000000     0.219250000000     0.541650000000    -0.444914   
O274     O      0.498040000000     0.221190000000     0.951550000000    -0.445202   
O275     O      0.540020000000     0.219630000000     0.500020000000    -0.442702   
O276     O      0.949650000000     0.221050000000     0.993120000000    -0.43984    
O277     O      0.950630000000     0.272760000000     0.502140000000    -0.448279   
O278     O      0.540310000000     0.271680000000     0.993190000000    -0.446455   
O279     O      0.990770000000     0.273230000000     0.952740000000    -0.446985   
O280     O      0.500190000000     0.271100000000     0.542590000000    -0.449589   
O281     O      0.750580000000     0.201080000000     0.521380000000    -0.449347   
O282     O      0.742870000000     0.291030000000     0.523110000000    -0.449957   
O283     O      0.700910000000     0.242060000000     0.523200000000    -0.445318   
O284     O      0.790910000000     0.250310000000     0.521280000000    -0.453733   
O285     O      0.789760000000     0.246360000000     0.968880000000    -0.445494   
O286     O      0.699490000000     0.247740000000     0.970960000000    -0.44864    
O287     O      0.744080000000     0.292170000000     0.970610000000    -0.446752   
O288     O      0.743930000000     0.201720000000     0.969240000000    -0.445398   
O289     O      0.948800000000     0.992620000000     0.272480000000    -0.448802   
O290     O      0.538950000000     0.495840000000     0.274100000000    -0.447049   
O291     O      0.991790000000     0.540120000000     0.275300000000    -0.444681   
O292     O      0.496060000000     0.949930000000     0.271270000000    -0.45116    
O293     O      0.992120000000     0.952420000000     0.218970000000    -0.443657   
O294     O      0.497180000000     0.542600000000     0.223130000000    -0.448183   
O295     O      0.539720000000     0.996010000000     0.221580000000    -0.446137   
O296     O      0.949440000000     0.500240000000     0.220480000000    -0.447314   
O297     O      0.970030000000     0.701410000000     0.253060000000    -0.445221   
O298     O      0.970010000000     0.790990000000     0.240250000000    -0.445953   
O299     O      0.970850000000     0.740080000000     0.201810000000    -0.442996   
O300     O      0.969260000000     0.752350000000     0.291480000000    -0.443366   
O301     O      0.521140000000     0.744540000000     0.292700000000    -0.447305   
O302     O      0.522700000000     0.748100000000     0.202550000000    -0.447346   
O303     O      0.521770000000     0.791470000000     0.249200000000    -0.448376   
O304     O      0.522080000000     0.701200000000     0.246030000000    -0.448378   
O305     O      0.789600000000     0.968830000000     0.246980000000    -0.452305   
O306     O      0.699480000000     0.967520000000     0.249710000000    -0.448326   
O307     O      0.743860000000     0.967080000000     0.202560000000    -0.44879    
O308     O      0.746640000000     0.969240000000     0.292650000000    -0.451786   
O309     O      0.744200000000     0.521720000000     0.291430000000    -0.443815   
O310     O      0.741800000000     0.519650000000     0.201040000000    -0.449182   
O311     O      0.698450000000     0.520060000000     0.246690000000    -0.449749   
O312     O      0.788830000000     0.521310000000     0.244440000000    -0.443633   
O313     O      0.769960000000     0.994770000000     0.042810000000    -0.448403   
O314     O      0.772670000000     0.494070000000     0.452750000000    -0.450323   
O315     O      0.773340000000     0.540320000000     0.998010000000    -0.446379   
O316     O      0.769190000000     0.950010000000     0.498970000000    -0.454536   
O317     O      0.716760000000     0.952570000000     0.995480000000    -0.447231   
O318     O      0.720950000000     0.542840000000     0.495240000000    -0.448561   
O319     O      0.720280000000     0.998330000000     0.450840000000    -0.451168   
O320     O      0.717590000000     0.498260000000     0.041300000000    -0.437425   
O321     O      0.991620000000     0.719250000000     0.041660000000    -0.438673   
O322     O      0.498040000000     0.721190000000     0.451550000000    -0.44689    
O323     O      0.540020000000     0.719630000000     0.000020000000    -0.430137   
O324     O      0.949650000000     0.721050000000     0.493120000000    -0.442846   
O325     O      0.950630000000     0.772760000000     0.002140000000    -0.435656   
O326     O      0.540310000000     0.771680000000     0.493190000000    -0.449472   
O327     O      0.990770000000     0.773230000000     0.452740000000    -0.448602   
O328     O      0.500190000000     0.771100000000     0.042590000000    -0.443433   
O329     O      0.750580000000     0.701080000000     0.021380000000    -0.442886   
O330     O      0.742870000000     0.791030000000     0.023110000000    -0.443385   
O331     O      0.700910000000     0.742060000000     0.023200000000    -0.438522   
O332     O      0.790910000000     0.750310000000     0.021280000000    -0.44753    
O333     O      0.789760000000     0.746360000000     0.468870000000    -0.447527   
O334     O      0.699490000000     0.747740000000     0.470960000000    -0.451154   
O335     O      0.744080000000     0.792170000000     0.470610000000    -0.449084   
O336     O      0.743930000000     0.701720000000     0.469240000000    -0.447739   
O337     O      0.948800000000     0.992620000000     0.772480000000    -0.448782   
O338     O      0.538950000000     0.495840000000     0.774100000000    -0.447133   
O339     O      0.991790000000     0.540120000000     0.775300000000    -0.444783   
O340     O      0.496060000000     0.949930000000     0.771270000000    -0.451236   
O341     O      0.992120000000     0.952420000000     0.718970000000    -0.443819   
O342     O      0.497180000000     0.542600000000     0.723130000000    -0.448323   
O343     O      0.539720000000     0.996010000000     0.721580000000    -0.446303   
O344     O      0.949440000000     0.500240000000     0.720480000000    -0.447579   
O345     O      0.970030000000     0.701410000000     0.753060000000    -0.445253   
O346     O      0.970010000000     0.790990000000     0.740250000000    -0.445968   
O347     O      0.970850000000     0.740080000000     0.701810000000    -0.44305    
O348     O      0.969260000000     0.752350000000     0.791480000000    -0.443416   
O349     O      0.521140000000     0.744540000000     0.792700000000    -0.447358   
O350     O      0.522700000000     0.748100000000     0.702550000000    -0.447413   
O351     O      0.521770000000     0.791470000000     0.749200000000    -0.448414   
O352     O      0.522080000000     0.701200000000     0.746030000000    -0.448423   
O353     O      0.789600000000     0.968830000000     0.746980000000    -0.452296   
O354     O      0.699480000000     0.967520000000     0.749720000000    -0.448335   
O355     O      0.743860000000     0.967080000000     0.702560000000    -0.448746   
O356     O      0.746640000000     0.969240000000     0.792660000000    -0.451708   
O357     O      0.744200000000     0.521720000000     0.791430000000    -0.443876   
O358     O      0.741800000000     0.519650000000     0.701040000000    -0.449197   
O359     O      0.698450000000     0.520060000000     0.746690000000    -0.449791   
O360     O      0.788830000000     0.521310000000     0.744440000000    -0.443683   
O361     O      0.769960000000     0.994770000000     0.542810000000    -0.454176   
O362     O      0.772670000000     0.494070000000     0.952750000000    -0.449379   
O363     O      0.773340000000     0.540320000000     0.498010000000    -0.444819   
O364     O      0.769190000000     0.950010000000     0.998970000000    -0.456009   
O365     O      0.716760000000     0.952570000000     0.495470000000    -0.446525   
O366     O      0.720950000000     0.542840000000     0.995240000000    -0.449135   
O367     O      0.720280000000     0.998330000000     0.950830000000    -0.450132   
O368     O      0.717590000000     0.498260000000     0.541300000000    -0.443527   
O369     O      0.991620000000     0.719250000000     0.541650000000    -0.445064   
O370     O      0.498040000000     0.721190000000     0.951550000000    -0.445346   
O371     O      0.540020000000     0.719630000000     0.500020000000    -0.442843   
O372     O      0.949650000000     0.721050000000     0.993120000000    -0.439968   
O373     O      0.950630000000     0.772760000000     0.502140000000    -0.448342   
O374     O      0.540310000000     0.771680000000     0.993190000000    -0.446521   
O375     O      0.990770000000     0.773230000000     0.952740000000    -0.447047   
O376     O      0.500190000000     0.771100000000     0.542590000000    -0.449657   
O377     O      0.750580000000     0.701080000000     0.521380000000    -0.449415   
O378     O      0.742870000000     0.791030000000     0.523110000000    -0.449976   
O379     O      0.700910000000     0.742060000000     0.523200000000    -0.445364   
O380     O      0.790910000000     0.750310000000     0.521280000000    -0.453752   
O381     O      0.789760000000     0.746360000000     0.968880000000    -0.445524   
O382     O      0.699490000000     0.747740000000     0.970960000000    -0.448678   
O383     O      0.744080000000     0.792170000000     0.970610000000    -0.446754   
O384     O      0.743930000000     0.701720000000     0.969240000000    -0.445479   


