data_structure

_audit_creation_method RASPA-1.0
_audit_creation_date 2023-5-19
_audit_author_name 'Poobodin Mano'

_cell_length_a    42.3983
_cell_length_b    42.3619
_cell_length_c    42.3685
_cell_angle_alpha 90
_cell_angle_beta  90
_cell_angle_gamma 90
_cell_volume      76096.9

_symmetry_cell_setting          triclinic
_symmetry_space_group_name_Hall 'P 1'
_symmetry_space_group_name_H-M  'P 1'
_symmetry_Int_Tables_number     1

_symmetry_equiv_pos_as_xyz 'x,y,z'

loop_
_atom_site_label
_atom_site_type_symbol
_atom_site_fract_x
_atom_site_fract_y
_atom_site_fract_z
_atom_site_charge
C1       C      0.436840000000     0.994140000000     0.243510000000     0.437134   
C2       C      0.057060000000     0.488070000000     0.242720000000     0.434243   
C3       C      0.498970000000     0.050980000000     0.238540000000     0.437265   
C4       C      0.494420000000     0.431050000000     0.247540000000     0.435918   
C5       C      0.997980000000     0.180800000000     0.243660000000     0.427508   
C6       C      0.994840000000     0.301050000000     0.251950000000     0.433683   
C7       C      0.493900000000     0.244380000000     0.187810000000     0.436053   
C8       C      0.498780000000     0.237790000000     0.307970000000     0.440764   
C9       C      0.306930000000     0.994060000000     0.245830000000     0.434206   
C10      C      0.186880000000     0.988140000000     0.240850000000     0.436282   
C11      C      0.249190000000     0.494330000000     0.183300000000     0.441472   
C12      C      0.244240000000     0.488140000000     0.303420000000     0.443613   
C13      C      0.243610000000     0.433250000000     0.495930000000     0.43637    
C14      C      0.248190000000     0.053390000000     0.990930000000     0.44466    
C15      C      0.243700000000     0.490740000000     0.433240000000     0.439085   
C16      C      0.248170000000     0.496700000000     0.053410000000     0.440563   
C17      C      0.991840000000     0.245280000000     0.057880000000     0.438141   
C18      C      0.498460000000     0.242950000000     0.437780000000     0.43583    
C19      C      0.055210000000     0.242520000000     0.999670000000     0.426091   
C20      C      0.435130000000     0.245730000000     0.994780000000     0.438957   
C21      C      0.185280000000     0.241860000000     0.995520000000     0.433665   
C22      C      0.305310000000     0.244870000000     0.994440000000     0.428813   
C23      C      0.248170000000     0.183270000000     0.493210000000     0.438464   
C24      C      0.242490000000     0.303180000000     0.496690000000     0.44273    
C25      C      0.386280000000     0.268890000000     0.009370000000     0.0454232  
C26      C      0.387140000000     0.223060000000     0.477680000000     0.0550999  
C27      C      0.353410000000     0.267220000000     0.010800000000     0.0361892  
C28      C      0.354110000000     0.222520000000     0.477120000000     0.00185162 
C29      C      0.338560000000     0.195630000000     0.460730000000     0.262365   
C30      C      0.104390000000     0.220930000000     0.015830000000     0.0456572  
C31      C      0.102760000000     0.262890000000     0.479320000000     0.06419    
C32      C      0.137340000000     0.222360000000     0.015810000000     0.0355543  
C33      C      0.135740000000     0.262720000000     0.476970000000    -0.00116185 
C34      C      0.150210000000     0.286380000000     0.455350000000     0.302414   
C35      C      0.262730000000     0.384170000000     0.477980000000     0.0404228  
C36      C      0.221500000000     0.385590000000     0.015320000000     0.0664855  
C37      C      0.261050000000     0.351420000000     0.477260000000     0.0296678  
C38      C      0.221450000000     0.352350000000     0.016890000000     0.000368147
C39      C      0.198210000000     0.337250000000     0.038550000000     0.303515   
C40      C      0.225230000000     0.102510000000     0.977310000000     0.0392955  
C41      C      0.273630000000     0.101370000000     0.004820000000     0.0639297  
C42      C      0.226290000000     0.135330000000     0.976670000000     0.0328876  
C43      C      0.273580000000     0.134500000000     0.006510000000     0.00825795 
C44      C      0.300990000000     0.150280000000     0.521750000000     0.260396   
C45      C      0.260250000000     0.466450000000     0.352520000000     0.0461885  
C46      C      0.223700000000     0.008430000000     0.350940000000     0.0712493  
C47      C      0.261460000000     0.468910000000     0.385410000000     0.0347357  
C48      C      0.222890000000     0.009510000000     0.383990000000    -0.00337299 
C49      C      0.203190000000     0.034500000000     0.398730000000     0.305536   
C50      C      0.265880000000     0.474010000000     0.133990000000     0.0397097  
C51      C      0.233810000000     0.019500000000     0.135820000000     0.068951   
C52      C      0.266860000000     0.475990000000     0.101170000000     0.0335434  
C53      C      0.232640000000     0.020310000000     0.102660000000    -0.000940288
C54      C      0.215450000000     0.046980000000     0.087580000000     0.305592   
C55      C      0.976860000000     0.223290000000     0.357360000000     0.0381102  
C56      C      0.023030000000     0.254360000000     0.355580000000     0.0692817  
C57      C      0.977580000000     0.224150000000     0.390240000000     0.0341963  
C58      C      0.022160000000     0.257930000000     0.388540000000     0.000895918
C59      C      0.547500000000     0.276900000000     0.403510000000     0.295419   
C60      C      0.015150000000     0.260800000000     0.138770000000     0.0452688  
C61      C      0.968560000000     0.230360000000     0.140050000000     0.0619679  
C62      C      0.013230000000     0.262360000000     0.105950000000     0.0380056  
C63      C      0.967850000000     0.229550000000     0.106870000000    -0.00684403 
C64      C      0.440900000000     0.213100000000     0.091500000000     0.304263   
C65      C      0.106160000000     0.001700000000     0.265470000000     0.0456034  
C66      C      0.104810000000     0.471230000000     0.218850000000     0.0639023  
C67      C      0.138930000000     0.002880000000     0.263710000000     0.038268   
C68      C      0.138010000000     0.470200000000     0.218190000000    -0.00535415 
C69      C      0.153410000000     0.453740000000     0.191240000000     0.304313   
C70      C      0.387630000000     0.478940000000     0.221990000000     0.0390118  
C71      C      0.389110000000     0.012630000000     0.266320000000     0.069575   
C72      C      0.354880000000     0.477870000000     0.223930000000     0.034469   
C73      C      0.355930000000     0.013440000000     0.267220000000    -0.000278601
C74      C      0.340780000000     0.031390000000     0.293370000000     0.30255    
C75      C      0.009850000000     0.381470000000     0.227440000000     0.0461042  
C76      C      0.978540000000     0.383730000000     0.273430000000     0.0617493  
C77      C      0.010990000000     0.348770000000     0.229720000000     0.038892   
C78      C      0.977540000000     0.350430000000     0.274610000000    -0.00715137 
C79      C      0.960790000000     0.335370000000     0.301580000000     0.304231   
C80      C      0.025300000000     0.131840000000     0.247730000000     0.0448324  
C81      C      0.472160000000     0.132610000000     0.231180000000     0.0628285  
C82      C      0.025090000000     0.098910000000     0.246550000000     0.0407745  
C83      C      0.472230000000     0.099570000000     0.228130000000    -0.0029429  
C84      C      0.442240000000     0.083880000000     0.218580000000     0.295579   
C85      C      0.436840000000     0.994140000000     0.743510000000     0.437163   
C86      C      0.057060000000     0.488070000000     0.742720000000     0.434267   
C87      C      0.498970000000     0.050980000000     0.738550000000     0.437297   
C88      C      0.494420000000     0.431050000000     0.747540000000     0.436194   
C89      C      0.997980000000     0.180800000000     0.743660000000     0.427478   
C90      C      0.994840000000     0.301050000000     0.751950000000     0.433634   
C91      C      0.493900000000     0.244380000000     0.687810000000     0.436015   
C92      C      0.498780000000     0.237790000000     0.807970000000     0.44076    
C93      C      0.306930000000     0.994060000000     0.745830000000     0.43422    
C94      C      0.186880000000     0.988140000000     0.740850000000     0.436271   
C95      C      0.249190000000     0.494330000000     0.683300000000     0.441446   
C96      C      0.244240000000     0.488140000000     0.803420000000     0.443615   
C97      C      0.243610000000     0.433250000000     0.995930000000     0.435324   
C98      C      0.248190000000     0.053390000000     0.490930000000     0.445807   
C99      C      0.243700000000     0.490740000000     0.933240000000     0.438522   
C100     C      0.248170000000     0.496700000000     0.553410000000     0.441555   
C101     C      0.991840000000     0.245280000000     0.557880000000     0.439448   
C102     C      0.498460000000     0.242950000000     0.937780000000     0.435125   
C103     C      0.055210000000     0.242520000000     0.499670000000     0.435171   
C104     C      0.435130000000     0.245730000000     0.494780000000     0.44035    
C105     C      0.185280000000     0.241860000000     0.495520000000     0.441752   
C106     C      0.305310000000     0.244870000000     0.494440000000     0.437053   
C107     C      0.248170000000     0.183270000000     0.993220000000     0.430506   
C108     C      0.242490000000     0.303180000000     0.996690000000     0.434723   
C109     C      0.386280000000     0.268890000000     0.509370000000     0.0400353  
C110     C      0.387140000000     0.223060000000     0.977680000000     0.054273   
C111     C      0.353410000000     0.267220000000     0.510800000000     0.0316474  
C112     C      0.354110000000     0.222520000000     0.977120000000    -0.000192037
C113     C      0.338560000000     0.195630000000     0.960730000000     0.263353   
C114     C      0.104390000000     0.220930000000     0.515830000000     0.0409633  
C115     C      0.102760000000     0.262890000000     0.979330000000     0.0630655  
C116     C      0.137340000000     0.222360000000     0.515810000000     0.0307154  
C117     C      0.135740000000     0.262720000000     0.976970000000    -0.00252247 
C118     C      0.150210000000     0.286380000000     0.955350000000     0.30249    
C119     C      0.262730000000     0.384170000000     0.977980000000     0.039533   
C120     C      0.221500000000     0.385590000000     0.515320000000     0.0610132  
C121     C      0.261050000000     0.351420000000     0.977260000000     0.0284079  
C122     C      0.221450000000     0.352350000000     0.516890000000    -0.00407038 
C123     C      0.198210000000     0.337250000000     0.538550000000     0.304001   
C124     C      0.225230000000     0.102510000000     0.477310000000     0.0403808  
C125     C      0.273630000000     0.101370000000     0.504820000000     0.0587569  
C126     C      0.226290000000     0.135330000000     0.476660000000     0.0341586  
C127     C      0.273580000000     0.134500000000     0.506510000000     0.0032611  
C128     C      0.300990000000     0.150280000000     0.021750000000     0.259256   
C129     C      0.260250000000     0.466450000000     0.852520000000     0.0461545  
C130     C      0.223700000000     0.008430000000     0.850940000000     0.0712201  
C131     C      0.261460000000     0.468910000000     0.885410000000     0.034624   
C132     C      0.222890000000     0.009510000000     0.883990000000    -0.00342934 
C133     C      0.203190000000     0.034500000000     0.898730000000     0.305298   
C134     C      0.265880000000     0.474010000000     0.633990000000     0.039536   
C135     C      0.233810000000     0.019500000000     0.635820000000     0.0689118  
C136     C      0.266860000000     0.475990000000     0.601170000000     0.033334   
C137     C      0.232640000000     0.020310000000     0.602660000000    -0.00120882 
C138     C      0.215450000000     0.046980000000     0.587580000000     0.305465   
C139     C      0.976860000000     0.223290000000     0.857360000000     0.0380762  
C140     C      0.023030000000     0.254360000000     0.855580000000     0.0692728  
C141     C      0.977580000000     0.224150000000     0.890240000000     0.0340259  
C142     C      0.022160000000     0.257930000000     0.888540000000     0.000717303
C143     C      0.547500000000     0.276900000000     0.903510000000     0.295419   
C144     C      0.015150000000     0.260800000000     0.638780000000     0.0451268  
C145     C      0.968560000000     0.230360000000     0.640050000000     0.061894   
C146     C      0.013230000000     0.262360000000     0.605950000000     0.0378652  
C147     C      0.967850000000     0.229550000000     0.606870000000    -0.00711258 
C148     C      0.440900000000     0.213100000000     0.591500000000     0.304154   
C149     C      0.106160000000     0.001700000000     0.765470000000     0.0455894  
C150     C      0.104810000000     0.471230000000     0.718850000000     0.0638733  
C151     C      0.138930000000     0.002880000000     0.763710000000     0.0382432  
C152     C      0.138010000000     0.470200000000     0.718190000000    -0.00542332 
C153     C      0.153410000000     0.453740000000     0.691240000000     0.304283   
C154     C      0.387630000000     0.478940000000     0.721990000000     0.0389153  
C155     C      0.389110000000     0.012630000000     0.766330000000     0.0694762  
C156     C      0.354880000000     0.477870000000     0.723940000000     0.0345118  
C157     C      0.355930000000     0.013440000000     0.767220000000    -0.000252316
C158     C      0.340780000000     0.031390000000     0.793370000000     0.302503   
C159     C      0.009850000000     0.381470000000     0.727440000000     0.0460709  
C160     C      0.978540000000     0.383730000000     0.773430000000     0.0617266  
C161     C      0.010990000000     0.348770000000     0.729720000000     0.0388454  
C162     C      0.977540000000     0.350430000000     0.774610000000    -0.0071796  
C163     C      0.960790000000     0.335370000000     0.801590000000     0.304349   
C164     C      0.025300000000     0.131840000000     0.747730000000     0.0447859  
C165     C      0.472160000000     0.132610000000     0.731180000000     0.0627856  
C166     C      0.025090000000     0.098910000000     0.746550000000     0.0407033  
C167     C      0.472230000000     0.099570000000     0.728130000000    -0.00303204 
C168     C      0.442240000000     0.083880000000     0.718580000000     0.295557   
C169     C      0.436840000000     0.494140000000     0.243510000000     0.43809    
C170     C      0.057060000000     0.988070000000     0.242720000000     0.433428   
C171     C      0.498970000000     0.550980000000     0.238540000000     0.437923   
C172     C      0.494420000000     0.931050000000     0.247540000000     0.435531   
C173     C      0.997980000000     0.680800000000     0.243660000000     0.427447   
C174     C      0.994840000000     0.801050000000     0.251950000000     0.433681   
C175     C      0.493900000000     0.744380000000     0.187810000000     0.436042   
C176     C      0.498780000000     0.737790000000     0.307970000000     0.44075    
C177     C      0.306930000000     0.494060000000     0.245830000000     0.440713   
C178     C      0.186880000000     0.488140000000     0.240850000000     0.442706   
C179     C      0.249190000000     0.994330000000     0.183300000000     0.435197   
C180     C      0.244240000000     0.988140000000     0.303420000000     0.436774   
C181     C      0.243610000000     0.933250000000     0.495930000000     0.435994   
C182     C      0.248190000000     0.553390000000     0.990930000000     0.445508   
C183     C      0.243700000000     0.990740000000     0.433240000000     0.438157   
C184     C      0.248170000000     0.996700000000     0.053410000000     0.439627   
C185     C      0.991840000000     0.745280000000     0.057880000000     0.438154   
C186     C      0.498460000000     0.742950000000     0.437780000000     0.43585    
C187     C      0.055210000000     0.742520000000     0.999670000000     0.426088   
C188     C      0.435130000000     0.745730000000     0.994780000000     0.438981   
C189     C      0.185280000000     0.741860000000     0.995520000000     0.433638   
C190     C      0.305310000000     0.744870000000     0.994440000000     0.428808   
C191     C      0.248170000000     0.683270000000     0.493210000000     0.438544   
C192     C      0.242490000000     0.803180000000     0.496690000000     0.442691   
C193     C      0.386280000000     0.768890000000     0.009370000000     0.0454172  
C194     C      0.387140000000     0.723060000000     0.477680000000     0.0550808  
C195     C      0.353410000000     0.767220000000     0.010800000000     0.0361774  
C196     C      0.354110000000     0.722520000000     0.477120000000     0.00182592 
C197     C      0.338560000000     0.695630000000     0.460730000000     0.262326   
C198     C      0.104390000000     0.720930000000     0.015830000000     0.0456217  
C199     C      0.102760000000     0.762890000000     0.479320000000     0.0641788  
C200     C      0.137340000000     0.722360000000     0.015810000000     0.0355266  
C201     C      0.135740000000     0.762720000000     0.476970000000    -0.00120238 
C202     C      0.150210000000     0.786370000000     0.455350000000     0.302289   
C203     C      0.262730000000     0.884170000000     0.477980000000     0.0403426  
C204     C      0.221500000000     0.885590000000     0.015320000000     0.0664147  
C205     C      0.261050000000     0.851420000000     0.477260000000     0.0296295  
C206     C      0.221450000000     0.852350000000     0.016890000000     0.000331035
C207     C      0.198210000000     0.837250000000     0.038550000000     0.303506   
C208     C      0.225230000000     0.602510000000     0.977310000000     0.039207   
C209     C      0.273630000000     0.601370000000     0.004820000000     0.0638726  
C210     C      0.226290000000     0.635330000000     0.976670000000     0.0327904  
C211     C      0.273580000000     0.634500000000     0.006510000000     0.00813799 
C212     C      0.300990000000     0.650280000000     0.521750000000     0.26039    
C213     C      0.260250000000     0.966450000000     0.352520000000     0.0450884  
C214     C      0.223700000000     0.508430000000     0.350940000000     0.0675691  
C215     C      0.261460000000     0.968910000000     0.385410000000     0.0339707  
C216     C      0.222890000000     0.509510000000     0.383990000000    -0.00743452 
C217     C      0.203190000000     0.534500000000     0.398730000000     0.305809   
C218     C      0.265880000000     0.974010000000     0.133990000000     0.0388177  
C219     C      0.233810000000     0.519500000000     0.135820000000     0.0651198  
C220     C      0.266860000000     0.975990000000     0.101170000000     0.0328649  
C221     C      0.232640000000     0.520310000000     0.102660000000    -0.00503585 
C222     C      0.215450000000     0.546980000000     0.087580000000     0.305866   
C223     C      0.976860000000     0.723290000000     0.357360000000     0.0380644  
C224     C      0.023030000000     0.754360000000     0.355580000000     0.0692651  
C225     C      0.977580000000     0.724150000000     0.390240000000     0.0341362  
C226     C      0.022160000000     0.757930000000     0.388540000000     0.000851217
C227     C      0.547500000000     0.776900000000     0.403510000000     0.29541    
C228     C      0.015150000000     0.760800000000     0.138770000000     0.0452894  
C229     C      0.968560000000     0.730360000000     0.140050000000     0.0619038  
C230     C      0.013230000000     0.762360000000     0.105950000000     0.0379551  
C231     C      0.967850000000     0.729550000000     0.106870000000    -0.00690785 
C232     C      0.440900000000     0.713100000000     0.091500000000     0.304273   
C233     C      0.106160000000     0.501700000000     0.265470000000     0.041213   
C234     C      0.104810000000     0.971230000000     0.218850000000     0.0631685  
C235     C      0.138930000000     0.502880000000     0.263710000000     0.0344952  
C236     C      0.138010000000     0.970210000000     0.218190000000    -0.00630144 
C237     C      0.153410000000     0.953740000000     0.191240000000     0.304326   
C238     C      0.387630000000     0.978940000000     0.221990000000     0.038163   
C239     C      0.389110000000     0.512630000000     0.266320000000     0.0653006  
C240     C      0.354880000000     0.977870000000     0.223930000000     0.0334787  
C241     C      0.355930000000     0.513440000000     0.267220000000    -0.0038211  
C242     C      0.340780000000     0.531390000000     0.293370000000     0.303123   
C243     C      0.009850000000     0.881470000000     0.227440000000     0.0460238  
C244     C      0.978540000000     0.883730000000     0.273430000000     0.0616775  
C245     C      0.010990000000     0.848770000000     0.229720000000     0.0388618  
C246     C      0.977540000000     0.850430000000     0.274610000000    -0.00722027 
C247     C      0.960790000000     0.835370000000     0.301580000000     0.304236   
C248     C      0.025300000000     0.631840000000     0.247730000000     0.0446963  
C249     C      0.472160000000     0.632610000000     0.231180000000     0.0627533  
C250     C      0.025090000000     0.598910000000     0.246550000000     0.0405847  
C251     C      0.472230000000     0.599570000000     0.228130000000    -0.0031946  
C252     C      0.442240000000     0.583880000000     0.218580000000     0.295314   
C253     C      0.436840000000     0.494140000000     0.743510000000     0.438121   
C254     C      0.057060000000     0.988070000000     0.742720000000     0.433451   
C255     C      0.498970000000     0.550980000000     0.738550000000     0.437958   
C256     C      0.494420000000     0.931050000000     0.747540000000     0.435807   
C257     C      0.997980000000     0.680800000000     0.743660000000     0.427417   
C258     C      0.994840000000     0.801050000000     0.751950000000     0.433632   
C259     C      0.493900000000     0.744380000000     0.687810000000     0.436004   
C260     C      0.498780000000     0.737790000000     0.807970000000     0.440745   
C261     C      0.306930000000     0.494060000000     0.745830000000     0.440739   
C262     C      0.186880000000     0.488140000000     0.740850000000     0.442706   
C263     C      0.249190000000     0.994330000000     0.683300000000     0.435156   
C264     C      0.244240000000     0.988140000000     0.803420000000     0.436768   
C265     C      0.243610000000     0.933250000000     0.995930000000     0.434949   
C266     C      0.248190000000     0.553390000000     0.490930000000     0.44666    
C267     C      0.243700000000     0.990740000000     0.933240000000     0.437595   
C268     C      0.248170000000     0.996700000000     0.553410000000     0.440616   
C269     C      0.991840000000     0.745280000000     0.557880000000     0.439463   
C270     C      0.498460000000     0.742950000000     0.937780000000     0.435143   
C271     C      0.055210000000     0.742520000000     0.499670000000     0.435185   
C272     C      0.435130000000     0.745730000000     0.494780000000     0.440376   
C273     C      0.185280000000     0.741860000000     0.495520000000     0.441737   
C274     C      0.305310000000     0.744870000000     0.494440000000     0.437059   
C275     C      0.248170000000     0.683270000000     0.993220000000     0.430567   
C276     C      0.242490000000     0.803180000000     0.996690000000     0.434677   
C277     C      0.386280000000     0.768890000000     0.509370000000     0.0400203  
C278     C      0.387140000000     0.723060000000     0.977680000000     0.054253   
C279     C      0.353410000000     0.767220000000     0.510800000000     0.0316278  
C280     C      0.354110000000     0.722520000000     0.977120000000    -0.000221686
C281     C      0.338560000000     0.695630000000     0.960730000000     0.263316   
C282     C      0.104390000000     0.720930000000     0.515830000000     0.040919   
C283     C      0.102760000000     0.762890000000     0.979330000000     0.063053   
C284     C      0.137340000000     0.722360000000     0.515810000000     0.0306786  
C285     C      0.135740000000     0.762720000000     0.976970000000    -0.0025644  
C286     C      0.150210000000     0.786370000000     0.955350000000     0.302366   
C287     C      0.262730000000     0.884170000000     0.977980000000     0.0394532  
C288     C      0.221500000000     0.885590000000     0.515320000000     0.0609432  
C289     C      0.261050000000     0.851420000000     0.977260000000     0.0283696  
C290     C      0.221450000000     0.852350000000     0.516890000000    -0.00411158 
C291     C      0.198210000000     0.837250000000     0.538550000000     0.303993   
C292     C      0.225230000000     0.602510000000     0.477310000000     0.040295   
C293     C      0.273630000000     0.601370000000     0.504820000000     0.0586767  
C294     C      0.226290000000     0.635330000000     0.476660000000     0.0340652  
C295     C      0.273580000000     0.634500000000     0.506510000000     0.00312719 
C296     C      0.300990000000     0.650280000000     0.021750000000     0.259246   
C297     C      0.260250000000     0.966450000000     0.852520000000     0.0450536  
C298     C      0.223700000000     0.508430000000     0.850940000000     0.0675349  
C299     C      0.261460000000     0.968910000000     0.885410000000     0.0338603  
C300     C      0.222890000000     0.509510000000     0.883990000000    -0.00749353 
C301     C      0.203190000000     0.534500000000     0.898730000000     0.305571   
C302     C      0.265880000000     0.974010000000     0.633990000000     0.0386414  
C303     C      0.233810000000     0.519500000000     0.635820000000     0.0650681  
C304     C      0.266860000000     0.975990000000     0.601170000000     0.032654   
C305     C      0.232640000000     0.520310000000     0.602660000000    -0.0053251  
C306     C      0.215450000000     0.546980000000     0.587580000000     0.305739   
C307     C      0.976860000000     0.723290000000     0.857360000000     0.0380302  
C308     C      0.023030000000     0.754360000000     0.855580000000     0.0692562  
C309     C      0.977580000000     0.724150000000     0.890240000000     0.0339656  
C310     C      0.022160000000     0.757930000000     0.888540000000     0.000672413
C311     C      0.547500000000     0.776900000000     0.903510000000     0.29541    
C312     C      0.015150000000     0.760800000000     0.638780000000     0.0451471  
C313     C      0.968560000000     0.730360000000     0.640050000000     0.0618298  
C314     C      0.013230000000     0.762360000000     0.605950000000     0.0378144  
C315     C      0.967850000000     0.729550000000     0.606870000000    -0.00717718 
C316     C      0.440900000000     0.713100000000     0.591500000000     0.304163   
C317     C      0.106160000000     0.501700000000     0.765470000000     0.0411888  
C318     C      0.104810000000     0.971230000000     0.718850000000     0.0631386  
C319     C      0.138930000000     0.502880000000     0.763710000000     0.0344614  
C320     C      0.138010000000     0.970210000000     0.718190000000    -0.00637236 
C321     C      0.153410000000     0.953740000000     0.691240000000     0.304296   
C322     C      0.387630000000     0.978940000000     0.721990000000     0.038065   
C323     C      0.389110000000     0.512630000000     0.766330000000     0.065194   
C324     C      0.354880000000     0.977870000000     0.723940000000     0.0335205  
C325     C      0.355930000000     0.513440000000     0.767220000000    -0.00380333 
C326     C      0.340780000000     0.531390000000     0.793370000000     0.303078   
C327     C      0.009850000000     0.881470000000     0.727440000000     0.0459904  
C328     C      0.978540000000     0.883730000000     0.773430000000     0.0616547  
C329     C      0.010990000000     0.848770000000     0.729720000000     0.0388151  
C330     C      0.977540000000     0.850430000000     0.774610000000    -0.0072484  
C331     C      0.960790000000     0.835370000000     0.801590000000     0.304354   
C332     C      0.025300000000     0.631840000000     0.747730000000     0.0446493  
C333     C      0.472160000000     0.632610000000     0.731180000000     0.0627101  
C334     C      0.025090000000     0.598910000000     0.746550000000     0.0405128  
C335     C      0.472230000000     0.599570000000     0.728130000000    -0.00328472 
C336     C      0.442240000000     0.583880000000     0.718580000000     0.295291   
C337     C      0.936840000000     0.994140000000     0.243510000000     0.43649    
C338     C      0.557060000000     0.488070000000     0.242720000000     0.435396   
C339     C      0.998970000000     0.050980000000     0.238540000000     0.428309   
C340     C      0.994420000000     0.431050000000     0.247540000000     0.43467    
C341     C      0.497990000000     0.180800000000     0.243660000000     0.435196   
C342     C      0.494830000000     0.301050000000     0.251950000000     0.441489   
C343     C      0.993890000000     0.244380000000     0.187810000000     0.42823    
C344     C      0.998780000000     0.237790000000     0.307970000000     0.433072   
C345     C      0.806920000000     0.994060000000     0.245830000000     0.434324   
C346     C      0.686880000000     0.988140000000     0.240850000000     0.436207   
C347     C      0.749190000000     0.494330000000     0.183300000000     0.44148    
C348     C      0.744240000000     0.488140000000     0.303420000000     0.443603   
C349     C      0.743610000000     0.433250000000     0.495930000000     0.436385   
C350     C      0.748190000000     0.053390000000     0.990930000000     0.444692   
C351     C      0.743700000000     0.490740000000     0.433240000000     0.439108   
C352     C      0.748170000000     0.496700000000     0.053410000000     0.440584   
C353     C      0.491850000000     0.245280000000     0.057880000000     0.43912    
C354     C      0.998460000000     0.242950000000     0.437780000000     0.434686   
C355     C      0.555210000000     0.242520000000     0.999670000000     0.426971   
C356     C      0.935130000000     0.245730000000     0.994780000000     0.438557   
C357     C      0.685280000000     0.241860000000     0.995520000000     0.433624   
C358     C      0.805310000000     0.244870000000     0.994440000000     0.428819   
C359     C      0.748170000000     0.183270000000     0.493210000000     0.438464   
C360     C      0.742500000000     0.303180000000     0.496690000000     0.442734   
C361     C      0.886280000000     0.268890000000     0.009370000000     0.0453513  
C362     C      0.887140000000     0.223060000000     0.477680000000     0.0550526  
C363     C      0.853410000000     0.267220000000     0.010800000000     0.0361527  
C364     C      0.854120000000     0.222520000000     0.477120000000     0.00181699 
C365     C      0.838560000000     0.195630000000     0.460730000000     0.262347   
C366     C      0.604390000000     0.220930000000     0.015830000000     0.0454386  
C367     C      0.602760000000     0.262890000000     0.479320000000     0.0639801  
C368     C      0.637340000000     0.222360000000     0.015810000000     0.0353774  
C369     C      0.635740000000     0.262720000000     0.476970000000    -0.00130285 
C370     C      0.650220000000     0.286380000000     0.455350000000     0.302441   
C371     C      0.762730000000     0.384170000000     0.477980000000     0.0403881  
C372     C      0.721500000000     0.385590000000     0.015320000000     0.0664445  
C373     C      0.761050000000     0.351420000000     0.477260000000     0.0296203  
C374     C      0.721450000000     0.352350000000     0.016890000000     0.000331044
C375     C      0.698210000000     0.337250000000     0.038550000000     0.303472   
C376     C      0.725230000000     0.102510000000     0.977310000000     0.0392538  
C377     C      0.773630000000     0.101370000000     0.004820000000     0.0639079  
C378     C      0.726290000000     0.135330000000     0.976670000000     0.0328424  
C379     C      0.773580000000     0.134500000000     0.006510000000     0.00825641 
C380     C      0.800990000000     0.150280000000     0.521750000000     0.26039    
C381     C      0.760250000000     0.466450000000     0.352520000000     0.0461814  
C382     C      0.723700000000     0.008430000000     0.350940000000     0.0712061  
C383     C      0.761470000000     0.468910000000     0.385410000000     0.0346275  
C384     C      0.722890000000     0.009510000000     0.383990000000    -0.0034063  
C385     C      0.703190000000     0.034500000000     0.398730000000     0.305325   
C386     C      0.765880000000     0.474010000000     0.133990000000     0.0396316  
C387     C      0.733810000000     0.019500000000     0.135820000000     0.0689655  
C388     C      0.766850000000     0.475990000000     0.101170000000     0.0336066  
C389     C      0.732640000000     0.020310000000     0.102660000000    -0.00107196 
C390     C      0.715450000000     0.046980000000     0.087580000000     0.305632   
C391     C      0.476850000000     0.223290000000     0.357360000000     0.0391296  
C392     C      0.523030000000     0.254360000000     0.355580000000     0.0646767  
C393     C      0.477580000000     0.224150000000     0.390240000000     0.0350979  
C394     C      0.522160000000     0.257930000000     0.388540000000    -0.00421456 
C395     C      0.047500000000     0.276900000000     0.403510000000     0.294868   
C396     C      0.515150000000     0.260800000000     0.138770000000     0.0408355  
C397     C      0.468560000000     0.230360000000     0.140050000000     0.0630569  
C398     C      0.513230000000     0.262360000000     0.105950000000     0.032633   
C399     C      0.467850000000     0.229550000000     0.106870000000    -0.0060774  
C400     C      0.940900000000     0.213100000000     0.091500000000     0.304233   
C401     C      0.606160000000     0.001700000000     0.265470000000     0.0454258  
C402     C      0.604810000000     0.471230000000     0.218850000000     0.063682   
C403     C      0.638930000000     0.002880000000     0.263710000000     0.0380693  
C404     C      0.638010000000     0.470200000000     0.218190000000    -0.00554973 
C405     C      0.653410000000     0.453740000000     0.191240000000     0.304164   
C406     C      0.887640000000     0.478940000000     0.221990000000     0.0389857  
C407     C      0.889110000000     0.012630000000     0.266320000000     0.0694775  
C408     C      0.854880000000     0.477870000000     0.223930000000     0.0344184  
C409     C      0.855930000000     0.013440000000     0.267220000000    -0.000230471
C410     C      0.840780000000     0.031390000000     0.293370000000     0.302229   
C411     C      0.509850000000     0.381470000000     0.227440000000     0.0407441  
C412     C      0.478550000000     0.383730000000     0.273430000000     0.0627166  
C413     C      0.510990000000     0.348770000000     0.229720000000     0.034307   
C414     C      0.477530000000     0.350430000000     0.274610000000    -0.00599747 
C415     C      0.460790000000     0.335370000000     0.301580000000     0.304184   
C416     C      0.525300000000     0.131840000000     0.247730000000     0.0400816  
C417     C      0.972160000000     0.132610000000     0.231180000000     0.0617873  
C418     C      0.525090000000     0.098910000000     0.246550000000     0.0361897  
C419     C      0.972230000000     0.099570000000     0.228130000000    -0.00395343 
C420     C      0.942240000000     0.083880000000     0.218580000000     0.295611   
C421     C      0.936840000000     0.994140000000     0.743510000000     0.436519   
C422     C      0.557060000000     0.488070000000     0.742720000000     0.435422   
C423     C      0.998970000000     0.050980000000     0.738550000000     0.428327   
C424     C      0.994420000000     0.431050000000     0.747540000000     0.434946   
C425     C      0.497990000000     0.180800000000     0.743660000000     0.435173   
C426     C      0.494830000000     0.301050000000     0.751950000000     0.441447   
C427     C      0.993890000000     0.244380000000     0.687810000000     0.42818    
C428     C      0.998780000000     0.237790000000     0.807970000000     0.433065   
C429     C      0.806920000000     0.994060000000     0.745830000000     0.434339   
C430     C      0.686880000000     0.988140000000     0.740850000000     0.436196   
C431     C      0.749190000000     0.494330000000     0.683300000000     0.441454   
C432     C      0.744240000000     0.488140000000     0.803420000000     0.443605   
C433     C      0.743610000000     0.433250000000     0.995930000000     0.435338   
C434     C      0.748190000000     0.053390000000     0.490930000000     0.445841   
C435     C      0.743700000000     0.490740000000     0.933240000000     0.438544   
C436     C      0.748170000000     0.496700000000     0.553410000000     0.441578   
C437     C      0.491850000000     0.245280000000     0.557880000000     0.440433   
C438     C      0.998460000000     0.242950000000     0.937780000000     0.433986   
C439     C      0.555210000000     0.242520000000     0.499670000000     0.43609    
C440     C      0.935130000000     0.245730000000     0.494780000000     0.439945   
C441     C      0.685280000000     0.241860000000     0.495520000000     0.441724   
C442     C      0.805310000000     0.244870000000     0.494440000000     0.437062   
C443     C      0.748170000000     0.183270000000     0.993220000000     0.430499   
C444     C      0.742500000000     0.303180000000     0.996690000000     0.434719   
C445     C      0.886280000000     0.268890000000     0.509370000000     0.0399664  
C446     C      0.887140000000     0.223060000000     0.977680000000     0.0542279  
C447     C      0.853410000000     0.267220000000     0.510800000000     0.0316083  
C448     C      0.854120000000     0.222520000000     0.977120000000    -0.000227048
C449     C      0.838560000000     0.195630000000     0.960730000000     0.263335   
C450     C      0.604390000000     0.220930000000     0.515830000000     0.0407258  
C451     C      0.602760000000     0.262890000000     0.979330000000     0.0628527  
C452     C      0.637340000000     0.222360000000     0.515810000000     0.0305258  
C453     C      0.635740000000     0.262720000000     0.976970000000    -0.00266629 
C454     C      0.650220000000     0.286380000000     0.955350000000     0.302518   
C455     C      0.762730000000     0.384170000000     0.977980000000     0.0394981  
C456     C      0.721500000000     0.385590000000     0.515320000000     0.0609637  
C457     C      0.761050000000     0.351420000000     0.977260000000     0.0283599  
C458     C      0.721450000000     0.352350000000     0.516890000000    -0.00411471 
C459     C      0.698210000000     0.337250000000     0.538550000000     0.303958   
C460     C      0.725230000000     0.102510000000     0.477310000000     0.0403399  
C461     C      0.773630000000     0.101370000000     0.504820000000     0.058727   
C462     C      0.726290000000     0.135330000000     0.476660000000     0.0341149  
C463     C      0.773580000000     0.134500000000     0.506510000000     0.0032536  
C464     C      0.800990000000     0.150280000000     0.021750000000     0.259249   
C465     C      0.760250000000     0.466450000000     0.852520000000     0.0461474  
C466     C      0.723700000000     0.008430000000     0.850940000000     0.071177   
C467     C      0.761470000000     0.468910000000     0.885410000000     0.0345158  
C468     C      0.722890000000     0.009510000000     0.883990000000    -0.00346282 
C469     C      0.703190000000     0.034500000000     0.898730000000     0.305088   
C470     C      0.765880000000     0.474010000000     0.633990000000     0.0394577  
C471     C      0.733810000000     0.019500000000     0.635820000000     0.0689263  
C472     C      0.766850000000     0.475990000000     0.601170000000     0.0333969  
C473     C      0.732640000000     0.020310000000     0.602660000000    -0.00134138 
C474     C      0.715450000000     0.046980000000     0.587580000000     0.305504   
C475     C      0.476850000000     0.223290000000     0.857360000000     0.0390948  
C476     C      0.523030000000     0.254360000000     0.855580000000     0.0646656  
C477     C      0.477580000000     0.224150000000     0.890240000000     0.0349263  
C478     C      0.522160000000     0.257930000000     0.888540000000    -0.00439074 
C479     C      0.047500000000     0.276900000000     0.903510000000     0.294868   
C480     C      0.515150000000     0.260800000000     0.638780000000     0.0406785  
C481     C      0.468560000000     0.230360000000     0.640050000000     0.0629852  
C482     C      0.513230000000     0.262360000000     0.605950000000     0.032471   
C483     C      0.467850000000     0.229550000000     0.606870000000    -0.00634459 
C484     C      0.940900000000     0.213100000000     0.591500000000     0.304123   
C485     C      0.606160000000     0.001700000000     0.765470000000     0.0454116  
C486     C      0.604810000000     0.471230000000     0.718850000000     0.0636526  
C487     C      0.638930000000     0.002880000000     0.763710000000     0.0380442  
C488     C      0.638010000000     0.470200000000     0.718190000000    -0.00561959 
C489     C      0.653410000000     0.453740000000     0.691240000000     0.304134   
C490     C      0.887640000000     0.478940000000     0.721990000000     0.0388892  
C491     C      0.889110000000     0.012630000000     0.766330000000     0.0693787  
C492     C      0.854880000000     0.477870000000     0.723940000000     0.0344611  
C493     C      0.855930000000     0.013440000000     0.767220000000    -0.000204091
C494     C      0.840780000000     0.031390000000     0.793370000000     0.302183   
C495     C      0.509850000000     0.381470000000     0.727440000000     0.0407025  
C496     C      0.478550000000     0.383730000000     0.773430000000     0.0626943  
C497     C      0.510990000000     0.348770000000     0.729720000000     0.0342534  
C498     C      0.477530000000     0.350430000000     0.774610000000    -0.00602539 
C499     C      0.460790000000     0.335370000000     0.801590000000     0.304302   
C500     C      0.525300000000     0.131840000000     0.747730000000     0.0400279  
C501     C      0.972160000000     0.132610000000     0.731180000000     0.0617438  
C502     C      0.525090000000     0.098910000000     0.746550000000     0.0361113  
C503     C      0.972230000000     0.099570000000     0.728130000000    -0.00404359 
C504     C      0.942240000000     0.083880000000     0.718580000000     0.295589   
C505     C      0.936840000000     0.494140000000     0.243510000000     0.437443   
C506     C      0.557060000000     0.988070000000     0.242720000000     0.434576   
C507     C      0.998970000000     0.550980000000     0.238540000000     0.42893    
C508     C      0.994420000000     0.931050000000     0.247540000000     0.434288   
C509     C      0.497990000000     0.680800000000     0.243660000000     0.435148   
C510     C      0.494830000000     0.801050000000     0.251950000000     0.441491   
C511     C      0.993890000000     0.744380000000     0.187810000000     0.428211   
C512     C      0.998780000000     0.737790000000     0.307970000000     0.433049   
C513     C      0.806920000000     0.494060000000     0.245830000000     0.440839   
C514     C      0.686880000000     0.488140000000     0.240850000000     0.442643   
C515     C      0.749190000000     0.994330000000     0.183300000000     0.435198   
C516     C      0.744240000000     0.988140000000     0.303420000000     0.436757   
C517     C      0.743610000000     0.933250000000     0.495930000000     0.436008   
C518     C      0.748190000000     0.553390000000     0.990930000000     0.445542   
C519     C      0.743700000000     0.990740000000     0.433240000000     0.438179   
C520     C      0.748170000000     0.996700000000     0.053410000000     0.439647   
C521     C      0.491850000000     0.745280000000     0.057880000000     0.439134   
C522     C      0.998460000000     0.742950000000     0.437780000000     0.434705   
C523     C      0.555210000000     0.742520000000     0.999670000000     0.426969   
C524     C      0.935130000000     0.745730000000     0.994780000000     0.43858    
C525     C      0.685280000000     0.741860000000     0.995520000000     0.433597   
C526     C      0.805310000000     0.744870000000     0.994440000000     0.428814   
C527     C      0.748170000000     0.683270000000     0.493210000000     0.438544   
C528     C      0.742500000000     0.803180000000     0.496690000000     0.442695   
C529     C      0.886280000000     0.768890000000     0.009370000000     0.0453454  
C530     C      0.887140000000     0.723060000000     0.477680000000     0.0550335  
C531     C      0.853410000000     0.767220000000     0.010800000000     0.0361411  
C532     C      0.854120000000     0.722520000000     0.477120000000     0.00179128 
C533     C      0.838560000000     0.695630000000     0.460730000000     0.262308   
C534     C      0.604390000000     0.720930000000     0.015830000000     0.0454026  
C535     C      0.602760000000     0.762890000000     0.479320000000     0.0639685  
C536     C      0.637340000000     0.722360000000     0.015810000000     0.0353493  
C537     C      0.635740000000     0.762720000000     0.476970000000    -0.00134357 
C538     C      0.650220000000     0.786370000000     0.455350000000     0.302317   
C539     C      0.762730000000     0.884170000000     0.477980000000     0.040308   
C540     C      0.721500000000     0.885590000000     0.015320000000     0.0663736  
C541     C      0.761050000000     0.851420000000     0.477260000000     0.029582   
C542     C      0.721450000000     0.852350000000     0.016890000000     0.00029392 
C543     C      0.698210000000     0.837250000000     0.038550000000     0.303464   
C544     C      0.725230000000     0.602510000000     0.977310000000     0.039165   
C545     C      0.773630000000     0.601370000000     0.004820000000     0.0638509  
C546     C      0.726290000000     0.635330000000     0.976670000000     0.0327449  
C547     C      0.773580000000     0.634500000000     0.006510000000     0.00813616 
C548     C      0.800990000000     0.650280000000     0.521750000000     0.260384   
C549     C      0.760250000000     0.966450000000     0.352520000000     0.0450804  
C550     C      0.723700000000     0.508430000000     0.350940000000     0.0675188  
C551     C      0.761470000000     0.968910000000     0.385410000000     0.0338617  
C552     C      0.722890000000     0.509510000000     0.383990000000    -0.00747551 
C553     C      0.703190000000     0.534500000000     0.398730000000     0.305598   
C554     C      0.765880000000     0.974010000000     0.133990000000     0.0387388  
C555     C      0.733810000000     0.519500000000     0.135820000000     0.0651277  
C556     C      0.766850000000     0.975990000000     0.101170000000     0.0329287  
C557     C      0.732640000000     0.520310000000     0.102660000000    -0.00517373 
C558     C      0.715450000000     0.546980000000     0.087580000000     0.305905   
C559     C      0.476850000000     0.723290000000     0.357360000000     0.0390849  
C560     C      0.523030000000     0.754360000000     0.355580000000     0.0646538  
C561     C      0.477580000000     0.724150000000     0.390240000000     0.0350385  
C562     C      0.522160000000     0.757930000000     0.388540000000    -0.00426565 
C563     C      0.047500000000     0.776900000000     0.403510000000     0.294858   
C564     C      0.515150000000     0.760800000000     0.138770000000     0.0408487  
C565     C      0.468560000000     0.730360000000     0.140050000000     0.0629937  
C566     C      0.513230000000     0.762360000000     0.105950000000     0.0325757  
C567     C      0.467850000000     0.729550000000     0.106870000000    -0.00614067 
C568     C      0.940900000000     0.713100000000     0.091500000000     0.304242   
C569     C      0.606160000000     0.501700000000     0.265470000000     0.0410158  
C570     C      0.604810000000     0.971230000000     0.218850000000     0.0629472  
C571     C      0.638930000000     0.502880000000     0.263710000000     0.0342855  
C572     C      0.638010000000     0.970210000000     0.218190000000    -0.00649901 
C573     C      0.653410000000     0.953740000000     0.191240000000     0.304177   
C574     C      0.887640000000     0.978940000000     0.221990000000     0.0381383  
C575     C      0.889110000000     0.512630000000     0.266320000000     0.0652044  
C576     C      0.854880000000     0.977870000000     0.223930000000     0.0334281  
C577     C      0.855930000000     0.513440000000     0.267220000000    -0.00377571 
C578     C      0.840780000000     0.531390000000     0.293370000000     0.302802   
C579     C      0.509850000000     0.881470000000     0.227440000000     0.0406673  
C580     C      0.478550000000     0.883730000000     0.273430000000     0.0626438  
C581     C      0.510990000000     0.848770000000     0.229720000000     0.0342744  
C582     C      0.477530000000     0.850430000000     0.274610000000    -0.00606698 
C583     C      0.460790000000     0.835370000000     0.301580000000     0.304189   
C584     C      0.525300000000     0.631840000000     0.247730000000     0.0399341  
C585     C      0.972160000000     0.632610000000     0.231180000000     0.0617093  
C586     C      0.525090000000     0.598910000000     0.246550000000     0.0359795  
C587     C      0.972230000000     0.599570000000     0.228130000000    -0.00420617 
C588     C      0.942240000000     0.583880000000     0.218580000000     0.295346   
C589     C      0.936840000000     0.494140000000     0.743510000000     0.437473   
C590     C      0.557060000000     0.988070000000     0.742720000000     0.434601   
C591     C      0.998970000000     0.550980000000     0.738550000000     0.428949   
C592     C      0.994420000000     0.931050000000     0.747540000000     0.434562   
C593     C      0.497990000000     0.680800000000     0.743660000000     0.435125   
C594     C      0.494830000000     0.801050000000     0.751950000000     0.441449   
C595     C      0.993890000000     0.744380000000     0.687810000000     0.428161   
C596     C      0.998780000000     0.737790000000     0.807970000000     0.433043   
C597     C      0.806920000000     0.494060000000     0.745830000000     0.440864   
C598     C      0.686880000000     0.488140000000     0.740850000000     0.442643   
C599     C      0.749190000000     0.994330000000     0.683300000000     0.435157   
C600     C      0.744240000000     0.988140000000     0.803420000000     0.436751   
C601     C      0.743610000000     0.933250000000     0.995930000000     0.434963   
C602     C      0.748190000000     0.553390000000     0.490930000000     0.446695   
C603     C      0.743700000000     0.990740000000     0.933240000000     0.437617   
C604     C      0.748170000000     0.996700000000     0.553410000000     0.440638   
C605     C      0.491850000000     0.745280000000     0.557880000000     0.440448   
C606     C      0.998460000000     0.742950000000     0.937780000000     0.434003   
C607     C      0.555210000000     0.742520000000     0.499670000000     0.436106   
C608     C      0.935130000000     0.745730000000     0.494780000000     0.43997    
C609     C      0.685280000000     0.741860000000     0.495520000000     0.441709   
C610     C      0.805310000000     0.744870000000     0.494440000000     0.437068   
C611     C      0.748170000000     0.683270000000     0.993220000000     0.430559   
C612     C      0.742500000000     0.803180000000     0.996690000000     0.434673   
C613     C      0.886280000000     0.768890000000     0.509370000000     0.0399514  
C614     C      0.887140000000     0.723060000000     0.977680000000     0.0542079  
C615     C      0.853410000000     0.767220000000     0.510800000000     0.0315888  
C616     C      0.854120000000     0.722520000000     0.977120000000    -0.000256704
C617     C      0.838560000000     0.695630000000     0.960730000000     0.263298   
C618     C      0.604390000000     0.720930000000     0.515830000000     0.0406808  
C619     C      0.602760000000     0.762890000000     0.979330000000     0.0628398  
C620     C      0.637340000000     0.722360000000     0.515810000000     0.0304885  
C621     C      0.635740000000     0.762720000000     0.976970000000    -0.00270841 
C622     C      0.650220000000     0.786370000000     0.955350000000     0.302394   
C623     C      0.762730000000     0.884170000000     0.977980000000     0.0394182  
C624     C      0.721500000000     0.885590000000     0.515320000000     0.0608935  
C625     C      0.761050000000     0.851420000000     0.977260000000     0.0283217  
C626     C      0.721450000000     0.852350000000     0.516890000000    -0.00415591 
C627     C      0.698210000000     0.837250000000     0.538550000000     0.303951   
C628     C      0.725230000000     0.602510000000     0.477310000000     0.0402539  
C629     C      0.773630000000     0.601370000000     0.504820000000     0.0586469  
C630     C      0.726290000000     0.635330000000     0.476660000000     0.0340211  
C631     C      0.773580000000     0.634500000000     0.506510000000     0.00311942 
C632     C      0.800990000000     0.650280000000     0.021750000000     0.25924    
C633     C      0.760250000000     0.966450000000     0.852520000000     0.0450456  
C634     C      0.723700000000     0.508430000000     0.850940000000     0.0674846  
C635     C      0.761470000000     0.968910000000     0.885410000000     0.0337513  
C636     C      0.722890000000     0.509510000000     0.883990000000    -0.00753468 
C637     C      0.703190000000     0.534500000000     0.898730000000     0.305361   
C638     C      0.765880000000     0.974010000000     0.633990000000     0.0385623  
C639     C      0.733810000000     0.519500000000     0.635820000000     0.0650759  
C640     C      0.766850000000     0.975990000000     0.601170000000     0.0327176  
C641     C      0.732640000000     0.520310000000     0.602660000000    -0.00546388 
C642     C      0.715450000000     0.546980000000     0.587580000000     0.305779   
C643     C      0.476850000000     0.723290000000     0.857360000000     0.03905    
C644     C      0.523030000000     0.754360000000     0.855580000000     0.0646426  
C645     C      0.477580000000     0.724150000000     0.890240000000     0.0348666  
C646     C      0.522160000000     0.757930000000     0.888540000000    -0.004442   
C647     C      0.047500000000     0.776900000000     0.903510000000     0.294858   
C648     C      0.515150000000     0.760800000000     0.638780000000     0.0406915  
C649     C      0.468560000000     0.730360000000     0.640050000000     0.0629219  
C650     C      0.513230000000     0.762360000000     0.605950000000     0.0324135  
C651     C      0.467850000000     0.729550000000     0.606870000000    -0.00640865 
C652     C      0.940900000000     0.713100000000     0.591500000000     0.304133   
C653     C      0.606160000000     0.501700000000     0.765470000000     0.0409913  
C654     C      0.604810000000     0.971230000000     0.718850000000     0.0629169  
C655     C      0.638930000000     0.502880000000     0.763710000000     0.0342514  
C656     C      0.638010000000     0.970210000000     0.718190000000    -0.00657063 
C657     C      0.653410000000     0.953740000000     0.691240000000     0.304147   
C658     C      0.887640000000     0.978940000000     0.721990000000     0.0380403  
C659     C      0.889110000000     0.512630000000     0.766330000000     0.0650978  
C660     C      0.854880000000     0.977870000000     0.723940000000     0.0334698  
C661     C      0.855930000000     0.513440000000     0.767220000000    -0.00375784 
C662     C      0.840780000000     0.531390000000     0.793370000000     0.302757   
C663     C      0.509850000000     0.881470000000     0.727440000000     0.0406255  
C664     C      0.478550000000     0.883730000000     0.773430000000     0.0626214  
C665     C      0.510990000000     0.848770000000     0.729720000000     0.0342208  
C666     C      0.477530000000     0.850430000000     0.774610000000    -0.0060948  
C667     C      0.460790000000     0.835370000000     0.801590000000     0.304307   
C668     C      0.525300000000     0.631840000000     0.747730000000     0.03988    
C669     C      0.972160000000     0.632610000000     0.731180000000     0.0616655  
C670     C      0.525090000000     0.598910000000     0.746550000000     0.0359003  
C671     C      0.972230000000     0.599570000000     0.728130000000    -0.00429729 
C672     C      0.942240000000     0.583880000000     0.718580000000     0.295323   
H1       H      0.340860000000     0.285030000000     0.024260000000     0.0410326  
H2       H      0.398160000000     0.287400000000     0.022470000000     0.0452963  
H3       H      0.399990000000     0.204830000000     0.465020000000     0.0444159  
H4       H      0.307620000000     0.160130000000     0.463170000000     0.165502   
H5       H      0.150100000000     0.205950000000     0.030760000000     0.0427417  
H6       H      0.092780000000     0.204060000000     0.031190000000     0.0408859  
H7       H      0.089500000000     0.279600000000     0.465160000000     0.0484193  
H8       H      0.184330000000     0.319760000000     0.451130000000     0.189958   
H9       H      0.277160000000     0.339000000000     0.461690000000     0.0422228  
H10      H      0.279480000000     0.395830000000     0.462510000000     0.0386026  
H11      H      0.205320000000     0.398890000000     0.030090000000     0.0469626  
H12      H      0.166800000000     0.301340000000     0.043380000000     0.189982   
H13      H      0.207080000000     0.147910000000     0.965290000000     0.0410209  
H14      H      0.205350000000     0.090900000000     0.966190000000     0.0539573  
H15      H      0.292880000000     0.088430000000     0.015720000000     0.0512902  
H16      H      0.333540000000     0.184290000000     0.519250000000     0.163624   
H17      H      0.276880000000     0.452990000000     0.398250000000     0.0394404  
H18      H      0.275350000000     0.449390000000     0.340860000000     0.0430346  
H19      H      0.209220000000     0.024890000000     0.337620000000     0.04431    
H20      H      0.161570000000     0.058020000000     0.395240000000     0.18871    
H21      H      0.280180000000     0.458230000000     0.088390000000     0.0417493  
H22      H      0.279050000000     0.455300000000     0.145480000000     0.0397856  
H23      H      0.221090000000     0.037300000000     0.149180000000     0.0508789  
H24      H      0.216720000000     0.078990000000     0.051960000000     0.193059   
H25      H      0.959490000000     0.211410000000     0.403170000000     0.040314   
H26      H      0.958350000000     0.209810000000     0.345920000000     0.0437062  
H27      H      0.041350000000     0.266450000000     0.342340000000     0.0498311  
H28      H      0.556440000000     0.314620000000     0.431740000000     0.187538   
H29      H      0.031400000000     0.275300000000     0.093360000000     0.041323   
H30      H      0.034260000000     0.273140000000     0.150520000000     0.0394163  
H31      H      0.950310000000     0.218100000000     0.153210000000     0.0475539  
H32      H      0.409390000000     0.215130000000     0.055500000000     0.191408   
H33      H      0.151560000000     0.015890000000     0.281830000000     0.0408851  
H34      H      0.094530000000     0.014380000000     0.284440000000     0.0416981  
H35      H      0.091610000000     0.459190000000     0.200480000000     0.0469423  
H36      H      0.189620000000     0.455640000000     0.159900000000     0.193582   
H37      H      0.342260000000     0.463700000000     0.206710000000     0.0392721  
H38      H      0.399170000000     0.465020000000     0.203860000000     0.0411701  
H39      H      0.402360000000     0.025970000000     0.283740000000     0.0519184  
H40      H      0.345090000000     0.070250000000     0.321160000000     0.19367    
H41      H      0.024230000000     0.335940000000     0.211930000000     0.0407219  
H42      H      0.022830000000     0.392680000000     0.208420000000     0.0432754  
H43      H      0.966180000000     0.397310000000     0.291300000000     0.0465729  
H44      H      0.461930000000     0.299060000000     0.332880000000     0.192257   
H45      H      0.046220000000     0.086270000000     0.253620000000     0.0366864  
H46      H      0.046630000000     0.143540000000     0.255650000000     0.0430405  
H47      H      0.450790000000     0.145370000000     0.225120000000     0.0511899  
H48      H      0.423040000000     0.049210000000     0.191630000000     0.19127    
H49      H      0.340860000000     0.285030000000     0.524260000000     0.0405786  
H50      H      0.398160000000     0.287400000000     0.522470000000     0.0446921  
H51      H      0.399990000000     0.204830000000     0.965020000000     0.0439559  
H52      H      0.307620000000     0.160130000000     0.963170000000     0.165568   
H53      H      0.150100000000     0.205950000000     0.530760000000     0.0425782  
H54      H      0.092780000000     0.204060000000     0.531190000000     0.0407331  
H55      H      0.089500000000     0.279600000000     0.965160000000     0.0483283  
H56      H      0.184330000000     0.319760000000     0.951130000000     0.189689   
H57      H      0.277160000000     0.339000000000     0.961690000000     0.0419748  
H58      H      0.279480000000     0.395830000000     0.962510000000     0.0382856  
H59      H      0.205320000000     0.398890000000     0.530090000000     0.0465158  
H60      H      0.166800000000     0.301340000000     0.543380000000     0.189464   
H61      H      0.207080000000     0.147910000000     0.465290000000     0.0414243  
H62      H      0.205350000000     0.090900000000     0.466190000000     0.0543757  
H63      H      0.292880000000     0.088430000000     0.515720000000     0.0506292  
H64      H      0.333540000000     0.184290000000     0.019250000000     0.164027   
H65      H      0.276880000000     0.452990000000     0.898250000000     0.0392792  
H66      H      0.275350000000     0.449390000000     0.840860000000     0.0429712  
H67      H      0.209220000000     0.024890000000     0.837620000000     0.0442909  
H68      H      0.161570000000     0.058020000000     0.895240000000     0.188256   
H69      H      0.280180000000     0.458230000000     0.588390000000     0.0409937  
H70      H      0.279050000000     0.455300000000     0.645480000000     0.0395955  
H71      H      0.221090000000     0.037300000000     0.649180000000     0.0508001  
H72      H      0.216720000000     0.078990000000     0.551960000000     0.191762   
H73      H      0.959490000000     0.211410000000     0.903170000000     0.0401758  
H74      H      0.958350000000     0.209810000000     0.845920000000     0.0436302  
H75      H      0.041350000000     0.266450000000     0.842340000000     0.0497911  
H76      H      0.556440000000     0.314620000000     0.931740000000     0.187085   
H77      H      0.031400000000     0.275300000000     0.593360000000     0.0406211  
H78      H      0.034260000000     0.273140000000     0.650520000000     0.0392371  
H79      H      0.950310000000     0.218100000000     0.653210000000     0.0474826  
H80      H      0.409390000000     0.215130000000     0.555500000000     0.190281   
H81      H      0.151560000000     0.015890000000     0.781830000000     0.0408497  
H82      H      0.094530000000     0.014380000000     0.784440000000     0.0416047  
H83      H      0.091610000000     0.459190000000     0.700480000000     0.0467659  
H84      H      0.189620000000     0.455640000000     0.659900000000     0.193383   
H85      H      0.342260000000     0.463700000000     0.706710000000     0.0391135  
H86      H      0.399170000000     0.465020000000     0.703860000000     0.0409882  
H87      H      0.402360000000     0.025970000000     0.783740000000     0.0518544  
H88      H      0.345090000000     0.070250000000     0.821160000000     0.193533   
H89      H      0.024230000000     0.335940000000     0.711930000000     0.0406254  
H90      H      0.022830000000     0.392680000000     0.708420000000     0.0431015  
H91      H      0.966180000000     0.397310000000     0.791300000000     0.0464651  
H92      H      0.461930000000     0.299060000000     0.832880000000     0.192192   
H93      H      0.046220000000     0.086270000000     0.753620000000     0.0366236  
H94      H      0.046630000000     0.143540000000     0.755650000000     0.0429878  
H95      H      0.450790000000     0.145370000000     0.725120000000     0.0511454  
H96      H      0.423040000000     0.049210000000     0.691630000000     0.191099   
H97      H      0.340860000000     0.785030000000     0.024260000000     0.0409957  
H98      H      0.398160000000     0.787400000000     0.022470000000     0.0452206  
H99      H      0.399990000000     0.704830000000     0.465020000000     0.0442897  
H100     H      0.307620000000     0.660130000000     0.463170000000     0.165361   
H101     H      0.150100000000     0.705950000000     0.030760000000     0.0426562  
H102     H      0.092780000000     0.704060000000     0.031190000000     0.0407432  
H103     H      0.089500000000     0.779600000000     0.465160000000     0.0483777  
H104     H      0.184330000000     0.819760000000     0.451130000000     0.189952   
H105     H      0.277160000000     0.839000000000     0.461690000000     0.042166   
H106     H      0.279480000000     0.895830000000     0.462510000000     0.0384581  
H107     H      0.205320000000     0.898890000000     0.030090000000     0.0467896  
H108     H      0.166800000000     0.801340000000     0.043380000000     0.189951   
H109     H      0.207080000000     0.647910000000     0.965290000000     0.0409318  
H110     H      0.205350000000     0.590900000000     0.966190000000     0.0536618  
H111     H      0.292880000000     0.588430000000     0.015720000000     0.0507328  
H112     H      0.333540000000     0.684290000000     0.519250000000     0.163559   
H113     H      0.276880000000     0.952990000000     0.398250000000     0.0392158  
H114     H      0.275350000000     0.949380000000     0.340860000000     0.0428545  
H115     H      0.209220000000     0.524880000000     0.337620000000     0.0444346  
H116     H      0.161570000000     0.558020000000     0.395240000000     0.188336   
H117     H      0.280180000000     0.958230000000     0.088390000000     0.0416009  
H118     H      0.279050000000     0.955300000000     0.145480000000     0.0397697  
H119     H      0.221090000000     0.537300000000     0.149180000000     0.0509132  
H120     H      0.216720000000     0.578990000000     0.051960000000     0.193028   
H121     H      0.959490000000     0.711410000000     0.403170000000     0.0402068  
H122     H      0.958350000000     0.709810000000     0.345920000000     0.0436202  
H123     H      0.041350000000     0.766450000000     0.342340000000     0.0497905  
H124     H      0.556440000000     0.814620000000     0.431740000000     0.187385   
H125     H      0.031400000000     0.775300000000     0.093360000000     0.0412702  
H126     H      0.034260000000     0.773140000000     0.150520000000     0.0393724  
H127     H      0.950310000000     0.718100000000     0.153210000000     0.0475091  
H128     H      0.409390000000     0.715130000000     0.055500000000     0.191334   
H129     H      0.151560000000     0.515890000000     0.281830000000     0.0407212  
H130     H      0.094530000000     0.514380000000     0.284440000000     0.0412308  
H131     H      0.091610000000     0.959190000000     0.200480000000     0.0467054  
H132     H      0.189620000000     0.955640000000     0.159900000000     0.193279   
H133     H      0.342260000000     0.963700000000     0.206710000000     0.0391357  
H134     H      0.399170000000     0.965020000000     0.203860000000     0.0408807  
H135     H      0.402360000000     0.525970000000     0.283740000000     0.0515562  
H136     H      0.345090000000     0.570250000000     0.321160000000     0.193357   
H137     H      0.024230000000     0.835940000000     0.211930000000     0.0406823  
H138     H      0.022830000000     0.892680000000     0.208420000000     0.0431583  
H139     H      0.966180000000     0.897310000000     0.291300000000     0.0463398  
H140     H      0.461930000000     0.799060000000     0.332880000000     0.192219   
H141     H      0.046220000000     0.586270000000     0.253620000000     0.0361528  
H142     H      0.046630000000     0.643540000000     0.255650000000     0.0429092  
H143     H      0.450790000000     0.645370000000     0.225120000000     0.051112   
H144     H      0.423040000000     0.549210000000     0.191630000000     0.190025   
H145     H      0.340860000000     0.785030000000     0.524260000000     0.0405417  
H146     H      0.398160000000     0.787400000000     0.522470000000     0.0446161  
H147     H      0.399990000000     0.704830000000     0.965020000000     0.0438287  
H148     H      0.307620000000     0.660130000000     0.963170000000     0.165426   
H149     H      0.150100000000     0.705950000000     0.530760000000     0.0424912  
H150     H      0.092780000000     0.704060000000     0.531190000000     0.0405886  
H151     H      0.089500000000     0.779600000000     0.965160000000     0.0482873  
H152     H      0.184330000000     0.819760000000     0.951130000000     0.189684   
H153     H      0.277160000000     0.839000000000     0.961690000000     0.041918   
H154     H      0.279480000000     0.895830000000     0.962510000000     0.0381415  
H155     H      0.205320000000     0.898890000000     0.530090000000     0.0463426  
H156     H      0.166800000000     0.801340000000     0.543380000000     0.189433   
H157     H      0.207080000000     0.647910000000     0.465290000000     0.0413358  
H158     H      0.205350000000     0.590900000000     0.466190000000     0.0540811  
H159     H      0.292880000000     0.588430000000     0.515720000000     0.0500668  
H160     H      0.333540000000     0.684290000000     0.019250000000     0.163963   
H161     H      0.276880000000     0.952990000000     0.898250000000     0.0390546  
H162     H      0.275350000000     0.949380000000     0.840860000000     0.0427912  
H163     H      0.209220000000     0.524880000000     0.837620000000     0.0444155  
H164     H      0.161570000000     0.558020000000     0.895240000000     0.187881   
H165     H      0.280180000000     0.958230000000     0.588390000000     0.0408452  
H166     H      0.279050000000     0.955300000000     0.645480000000     0.0395799  
H167     H      0.221090000000     0.537300000000     0.649180000000     0.0508342  
H168     H      0.216720000000     0.578990000000     0.551960000000     0.191726   
H169     H      0.959490000000     0.711410000000     0.903170000000     0.0400682  
H170     H      0.958350000000     0.709810000000     0.845920000000     0.0435439  
H171     H      0.041350000000     0.766450000000     0.842340000000     0.0497505  
H172     H      0.556440000000     0.814620000000     0.931740000000     0.186932   
H173     H      0.031400000000     0.775300000000     0.593360000000     0.0405673  
H174     H      0.034260000000     0.773140000000     0.650520000000     0.0391929  
H175     H      0.950310000000     0.718100000000     0.653210000000     0.0474375  
H176     H      0.409390000000     0.715130000000     0.555500000000     0.190204   
H177     H      0.151560000000     0.515890000000     0.781830000000     0.0406857  
H178     H      0.094530000000     0.514380000000     0.784440000000     0.0411366  
H179     H      0.091610000000     0.959190000000     0.700480000000     0.0465284  
H180     H      0.189620000000     0.955640000000     0.659900000000     0.19308    
H181     H      0.342260000000     0.963700000000     0.706710000000     0.0389766  
H182     H      0.399170000000     0.965020000000     0.703860000000     0.0406982  
H183     H      0.402360000000     0.525970000000     0.783740000000     0.0514919  
H184     H      0.345090000000     0.570250000000     0.821160000000     0.193219   
H185     H      0.024230000000     0.835940000000     0.711930000000     0.0405857  
H186     H      0.022830000000     0.892680000000     0.708420000000     0.0429842  
H187     H      0.966180000000     0.897310000000     0.791300000000     0.0462323  
H188     H      0.461930000000     0.799060000000     0.832880000000     0.192155   
H189     H      0.046220000000     0.586270000000     0.753620000000     0.0360886  
H190     H      0.046630000000     0.643540000000     0.755650000000     0.0428562  
H191     H      0.450790000000     0.645370000000     0.725120000000     0.0510671  
H192     H      0.423040000000     0.549210000000     0.691630000000     0.189849   
H193     H      0.840860000000     0.285030000000     0.024260000000     0.0409489  
H194     H      0.898160000000     0.287400000000     0.022470000000     0.0450478  
H195     H      0.899990000000     0.204830000000     0.465020000000     0.0442662  
H196     H      0.807620000000     0.160130000000     0.463170000000     0.165468   
H197     H      0.650100000000     0.205950000000     0.030760000000     0.0425458  
H198     H      0.592780000000     0.204060000000     0.031190000000     0.0401705  
H199     H      0.589500000000     0.279600000000     0.465160000000     0.0480471  
H200     H      0.684330000000     0.319760000000     0.451130000000     0.189879   
H201     H      0.777160000000     0.339000000000     0.461690000000     0.042174   
H202     H      0.779480000000     0.395830000000     0.462510000000     0.0385191  
H203     H      0.705320000000     0.398890000000     0.030090000000     0.0468069  
H204     H      0.666800000000     0.301340000000     0.043380000000     0.189795   
H205     H      0.707080000000     0.147910000000     0.965290000000     0.0408771  
H206     H      0.705350000000     0.090900000000     0.966190000000     0.0537838  
H207     H      0.792870000000     0.088430000000     0.015720000000     0.051207   
H208     H      0.833550000000     0.184290000000     0.519250000000     0.163488   
H209     H      0.776880000000     0.452990000000     0.398250000000     0.0393835  
H210     H      0.775350000000     0.449390000000     0.340860000000     0.0429795  
H211     H      0.709220000000     0.024890000000     0.337620000000     0.0442288  
H212     H      0.661570000000     0.058020000000     0.395240000000     0.188379   
H213     H      0.780180000000     0.458230000000     0.088390000000     0.0416371  
H214     H      0.779050000000     0.455300000000     0.145480000000     0.039742   
H215     H      0.721090000000     0.037300000000     0.149180000000     0.0507928  
H216     H      0.716720000000     0.078990000000     0.051960000000     0.192939   
H217     H      0.459490000000     0.211410000000     0.403170000000     0.0404572  
H218     H      0.458350000000     0.209810000000     0.345920000000     0.043827   
H219     H      0.541350000000     0.266450000000     0.342340000000     0.0498341  
H220     H      0.056440000000     0.314620000000     0.431740000000     0.187801   
H221     H      0.531400000000     0.275300000000     0.093360000000     0.0409562  
H222     H      0.534260000000     0.273140000000     0.150520000000     0.0394242  
H223     H      0.450310000000     0.218100000000     0.153210000000     0.0475149  
H224     H      0.909390000000     0.215130000000     0.055500000000     0.191336   
H225     H      0.651560000000     0.015890000000     0.281830000000     0.0407316  
H226     H      0.594530000000     0.014380000000     0.284440000000     0.0411536  
H227     H      0.591610000000     0.459190000000     0.200480000000     0.046312   
H228     H      0.689620000000     0.455640000000     0.159900000000     0.193528   
H229     H      0.842260000000     0.463700000000     0.206710000000     0.0391995  
H230     H      0.899170000000     0.465020000000     0.203860000000     0.0409142  
H231     H      0.902360000000     0.025970000000     0.283740000000     0.0516417  
H232     H      0.845090000000     0.070250000000     0.321160000000     0.193442   
H233     H      0.524230000000     0.335940000000     0.211930000000     0.0404902  
H234     H      0.522830000000     0.392680000000     0.208420000000     0.0426942  
H235     H      0.466180000000     0.397310000000     0.291300000000     0.0468675  
H236     H      0.961940000000     0.299060000000     0.332880000000     0.191906   
H237     H      0.546220000000     0.086270000000     0.253620000000     0.0365953  
H238     H      0.546620000000     0.143540000000     0.255650000000     0.0431855  
H239     H      0.950790000000     0.145370000000     0.225120000000     0.0512517  
H240     H      0.923040000000     0.049210000000     0.191630000000     0.190979   
H241     H      0.840860000000     0.285030000000     0.524260000000     0.0404943  
H242     H      0.898160000000     0.287400000000     0.522470000000     0.0444433  
H243     H      0.899990000000     0.204830000000     0.965020000000     0.0438068  
H244     H      0.807620000000     0.160130000000     0.963170000000     0.165534   
H245     H      0.650100000000     0.205950000000     0.530760000000     0.0423812  
H246     H      0.592780000000     0.204060000000     0.531190000000     0.0400148  
H247     H      0.589500000000     0.279600000000     0.965160000000     0.0479566  
H248     H      0.684330000000     0.319760000000     0.951130000000     0.18961    
H249     H      0.777160000000     0.339000000000     0.961690000000     0.0419266  
H250     H      0.779480000000     0.395830000000     0.962510000000     0.0382027  
H251     H      0.705320000000     0.398890000000     0.530090000000     0.0463579  
H252     H      0.666800000000     0.301340000000     0.543380000000     0.189275   
H253     H      0.707080000000     0.147910000000     0.465290000000     0.0412814  
H254     H      0.705350000000     0.090900000000     0.466190000000     0.0542028  
H255     H      0.792870000000     0.088430000000     0.515720000000     0.0505467  
H256     H      0.833550000000     0.184290000000     0.019250000000     0.163892   
H257     H      0.776880000000     0.452990000000     0.898250000000     0.0392226  
H258     H      0.775350000000     0.449390000000     0.840860000000     0.0429162  
H259     H      0.709220000000     0.024890000000     0.837620000000     0.0442096  
H260     H      0.661570000000     0.058020000000     0.895240000000     0.187924   
H261     H      0.780180000000     0.458230000000     0.588390000000     0.0408807  
H262     H      0.779050000000     0.455300000000     0.645480000000     0.0395518  
H263     H      0.721090000000     0.037300000000     0.649180000000     0.0507137  
H264     H      0.716720000000     0.078990000000     0.551960000000     0.191638   
H265     H      0.459490000000     0.211410000000     0.903170000000     0.0403185  
H266     H      0.458350000000     0.209810000000     0.845920000000     0.0437506  
H267     H      0.541350000000     0.266450000000     0.842340000000     0.0497939  
H268     H      0.056440000000     0.314620000000     0.931740000000     0.187349   
H269     H      0.531400000000     0.275300000000     0.593360000000     0.0402503  
H270     H      0.534260000000     0.273140000000     0.650520000000     0.0392459  
H271     H      0.450310000000     0.218100000000     0.653210000000     0.0474434  
H272     H      0.909390000000     0.215130000000     0.555500000000     0.19021    
H273     H      0.651560000000     0.015890000000     0.781830000000     0.040696   
H274     H      0.594530000000     0.014380000000     0.784440000000     0.0410595  
H275     H      0.591610000000     0.459190000000     0.700480000000     0.0461334  
H276     H      0.689620000000     0.455640000000     0.659900000000     0.193329   
H277     H      0.842260000000     0.463700000000     0.706710000000     0.0390408  
H278     H      0.899170000000     0.465020000000     0.703860000000     0.0407319  
H279     H      0.902360000000     0.025970000000     0.783740000000     0.0515781  
H280     H      0.845090000000     0.070250000000     0.821160000000     0.193306   
H281     H      0.524230000000     0.335940000000     0.711930000000     0.0403922  
H282     H      0.522830000000     0.392680000000     0.708420000000     0.0425176  
H283     H      0.466180000000     0.397310000000     0.791300000000     0.046759   
H284     H      0.961940000000     0.299060000000     0.832880000000     0.191842   
H285     H      0.546220000000     0.086270000000     0.753620000000     0.0365322  
H286     H      0.546620000000     0.143540000000     0.755650000000     0.0431332  
H287     H      0.950790000000     0.145370000000     0.725120000000     0.0512073  
H288     H      0.923040000000     0.049210000000     0.691630000000     0.190807   
H289     H      0.840860000000     0.785030000000     0.024260000000     0.0409122  
H290     H      0.898160000000     0.787400000000     0.022470000000     0.0449725  
H291     H      0.899990000000     0.704830000000     0.465020000000     0.0441397  
H292     H      0.807620000000     0.660130000000     0.463170000000     0.165326   
H293     H      0.650100000000     0.705950000000     0.030760000000     0.0424596  
H294     H      0.592780000000     0.704060000000     0.031190000000     0.0400256  
H295     H      0.589500000000     0.779600000000     0.465160000000     0.0480051  
H296     H      0.684330000000     0.819760000000     0.451130000000     0.189873   
H297     H      0.777160000000     0.839000000000     0.461690000000     0.0421173  
H298     H      0.779480000000     0.895830000000     0.462510000000     0.0383749  
H299     H      0.705320000000     0.898890000000     0.030090000000     0.0466337  
H300     H      0.666800000000     0.801340000000     0.043380000000     0.189764   
H301     H      0.707080000000     0.647910000000     0.965290000000     0.0407874  
H302     H      0.705350000000     0.590900000000     0.966190000000     0.0534868  
H303     H      0.792870000000     0.588430000000     0.015720000000     0.0506489  
H304     H      0.833550000000     0.684290000000     0.519250000000     0.163423   
H305     H      0.776880000000     0.952990000000     0.398250000000     0.0391596  
H306     H      0.775350000000     0.949380000000     0.340860000000     0.0427997  
H307     H      0.709220000000     0.524880000000     0.337620000000     0.0443531  
H308     H      0.661570000000     0.558020000000     0.395240000000     0.188002   
H309     H      0.780180000000     0.958230000000     0.088390000000     0.0414888  
H310     H      0.779050000000     0.955300000000     0.145480000000     0.0397267  
H311     H      0.721090000000     0.537300000000     0.149180000000     0.0508265  
H312     H      0.716720000000     0.578990000000     0.051960000000     0.192907   
H313     H      0.459490000000     0.711410000000     0.403170000000     0.0403504  
H314     H      0.458350000000     0.709810000000     0.345920000000     0.0437413  
H315     H      0.541350000000     0.766450000000     0.342340000000     0.049794   
H316     H      0.056440000000     0.814620000000     0.431740000000     0.187648   
H317     H      0.531400000000     0.775300000000     0.093360000000     0.0409032  
H318     H      0.534260000000     0.773140000000     0.150520000000     0.0393809  
H319     H      0.450310000000     0.718100000000     0.153210000000     0.0474701  
H320     H      0.909390000000     0.715130000000     0.055500000000     0.191262   
H321     H      0.651560000000     0.515890000000     0.281830000000     0.0405665  
H322     H      0.594530000000     0.514380000000     0.284440000000     0.0406825  
H323     H      0.591610000000     0.959190000000     0.200480000000     0.0460753  
H324     H      0.689620000000     0.955640000000     0.159900000000     0.193225   
H325     H      0.842260000000     0.963700000000     0.206710000000     0.0390636  
H326     H      0.899170000000     0.965020000000     0.203860000000     0.0406254  
H327     H      0.902360000000     0.525970000000     0.283740000000     0.0512786  
H328     H      0.845090000000     0.570250000000     0.321160000000     0.193128   
H329     H      0.524230000000     0.835940000000     0.211930000000     0.0404505  
H330     H      0.522830000000     0.892680000000     0.208420000000     0.0425771  
H331     H      0.466180000000     0.897310000000     0.291300000000     0.0466336  
H332     H      0.961940000000     0.799060000000     0.332880000000     0.191869   
H333     H      0.546220000000     0.586270000000     0.253620000000     0.0360599  
H334     H      0.546620000000     0.643540000000     0.255650000000     0.0430539  
H335     H      0.950790000000     0.645370000000     0.225120000000     0.0511742  
H336     H      0.923040000000     0.549210000000     0.191630000000     0.189733   
H337     H      0.840860000000     0.785030000000     0.524260000000     0.0404576  
H338     H      0.898160000000     0.787400000000     0.522470000000     0.0443677  
H339     H      0.899990000000     0.704830000000     0.965020000000     0.0436792  
H340     H      0.807620000000     0.660130000000     0.963170000000     0.165392   
H341     H      0.650100000000     0.705950000000     0.530760000000     0.0422933  
H342     H      0.592780000000     0.704060000000     0.531190000000     0.0398681  
H343     H      0.589500000000     0.779600000000     0.965160000000     0.0479152  
H344     H      0.684330000000     0.819760000000     0.951130000000     0.189605   
H345     H      0.777160000000     0.839000000000     0.961690000000     0.0418699  
H346     H      0.779480000000     0.895830000000     0.962510000000     0.0380589  
H347     H      0.705320000000     0.898890000000     0.530090000000     0.0461845  
H348     H      0.666800000000     0.801340000000     0.543380000000     0.189243   
H349     H      0.707080000000     0.647910000000     0.465290000000     0.0411922  
H350     H      0.705350000000     0.590900000000     0.466190000000     0.0539068  
H351     H      0.792870000000     0.588430000000     0.515720000000     0.0499836  
H352     H      0.833550000000     0.684290000000     0.019250000000     0.163827   
H353     H      0.776880000000     0.952990000000     0.898250000000     0.0389987  
H354     H      0.775350000000     0.949380000000     0.840860000000     0.0427365  
H355     H      0.709220000000     0.524880000000     0.837620000000     0.0443339  
H356     H      0.661570000000     0.558020000000     0.895240000000     0.187546   
H357     H      0.780180000000     0.958230000000     0.588390000000     0.0407323  
H358     H      0.779050000000     0.955300000000     0.645480000000     0.0395367  
H359     H      0.721090000000     0.537300000000     0.649180000000     0.0507471  
H360     H      0.716720000000     0.578990000000     0.551960000000     0.191601   
H361     H      0.459490000000     0.711410000000     0.903170000000     0.0402113  
H362     H      0.458350000000     0.709810000000     0.845920000000     0.0436647  
H363     H      0.541350000000     0.766450000000     0.842340000000     0.0497538  
H364     H      0.056440000000     0.814620000000     0.931740000000     0.187196   
H365     H      0.531400000000     0.775300000000     0.593360000000     0.0401963  
H366     H      0.534260000000     0.773140000000     0.650520000000     0.0392023  
H367     H      0.450310000000     0.718100000000     0.653210000000     0.0473983  
H368     H      0.909390000000     0.715130000000     0.555500000000     0.190132   
H369     H      0.651560000000     0.515890000000     0.781830000000     0.0405308  
H370     H      0.594530000000     0.514380000000     0.784440000000     0.0405876  
H371     H      0.591610000000     0.959190000000     0.700480000000     0.0458963  
H372     H      0.689620000000     0.955640000000     0.659900000000     0.193025   
H373     H      0.842260000000     0.963700000000     0.706710000000     0.0389044  
H374     H      0.899170000000     0.965020000000     0.703860000000     0.0404426  
H375     H      0.902360000000     0.525970000000     0.783740000000     0.0512147  
H376     H      0.845090000000     0.570250000000     0.821160000000     0.192991   
H377     H      0.524230000000     0.835940000000     0.711930000000     0.0403523  
H378     H      0.522830000000     0.892680000000     0.708420000000     0.0424004  
H379     H      0.466180000000     0.897310000000     0.791300000000     0.0465253  
H380     H      0.961940000000     0.799060000000     0.832880000000     0.191804   
H381     H      0.546220000000     0.586270000000     0.753620000000     0.0359955  
H382     H      0.546620000000     0.643540000000     0.755650000000     0.0430011  
H383     H      0.950790000000     0.645370000000     0.725120000000     0.0511293  
H384     H      0.923040000000     0.549210000000     0.691630000000     0.189557   
N1       N      0.402960000000     0.246240000000     0.993600000000    -0.187302   
N2       N      0.337470000000     0.244610000000     0.994160000000    -0.173243   
N3       N      0.087360000000     0.241910000000     0.998340000000    -0.186035   
N4       N      0.153000000000     0.242660000000     0.996050000000    -0.168232   
N5       N      0.242500000000     0.401090000000     0.496430000000    -0.185213   
N6       N      0.241180000000     0.335440000000     0.497110000000    -0.166227   
N7       N      0.249200000000     0.085640000000     0.490780000000    -0.181255   
N8       N      0.249720000000     0.151180000000     0.492080000000    -0.171652   
N9       N      0.242350000000     0.487120000000     0.335530000000    -0.183482   
N10      N      0.242590000000     0.490000000000     0.401050000000    -0.165782   
N11      N      0.249730000000     0.496010000000     0.151130000000    -0.184525   
N12      N      0.249430000000     0.498250000000     0.085570000000    -0.165786   
N13      N      0.499780000000     0.238100000000     0.340200000000    -0.183817   
N14      N      0.499420000000     0.242190000000     0.405650000000    -0.166897   
N15      N      0.492520000000     0.245270000000     0.155640000000    -0.184445   
N16      N      0.990420000000     0.245950000000     0.090060000000    -0.168971   
N17      N      0.089250000000     0.986770000000     0.242490000000    -0.186203   
N18      N      0.154760000000     0.986830000000     0.240590000000    -0.168167   
N19      N      0.404640000000     0.995470000000     0.243780000000    -0.186803   
N20      N      0.339080000000     0.995360000000     0.246010000000    -0.168893   
N21      N      0.994180000000     0.398860000000     0.249590000000    -0.187057   
N22      N      0.994280000000     0.333260000000     0.252550000000    -0.168368   
N23      N      0.998600000000     0.148560000000     0.240770000000    -0.184702   
N24      N      0.498940000000     0.083000000000     0.236400000000    -0.166594   
N25      N      0.402960000000     0.246240000000     0.493600000000    -0.183987   
N26      N      0.337470000000     0.244610000000     0.494160000000    -0.171139   
N27      N      0.087360000000     0.241910000000     0.498340000000    -0.183975   
N28      N      0.153000000000     0.242660000000     0.496040000000    -0.166012   
N29      N      0.242500000000     0.401090000000     0.996430000000    -0.188492   
N30      N      0.241180000000     0.335440000000     0.997110000000    -0.168376   
N31      N      0.249200000000     0.085640000000     0.990780000000    -0.18452    
N32      N      0.249720000000     0.151180000000     0.992090000000    -0.173878   
N33      N      0.242350000000     0.487120000000     0.835530000000    -0.18349    
N34      N      0.242590000000     0.490000000000     0.901040000000    -0.165668   
N35      N      0.249730000000     0.496010000000     0.651130000000    -0.184549   
N36      N      0.249430000000     0.498250000000     0.585570000000    -0.166185   
N37      N      0.499780000000     0.238100000000     0.840200000000    -0.183839   
N38      N      0.499420000000     0.242190000000     0.905650000000    -0.166816   
N39      N      0.492520000000     0.245270000000     0.655640000000    -0.184482   
N40      N      0.990420000000     0.245950000000     0.590060000000    -0.169416   
N41      N      0.089250000000     0.986770000000     0.742490000000    -0.186241   
N42      N      0.154760000000     0.986830000000     0.740590000000    -0.168167   
N43      N      0.404640000000     0.995470000000     0.743780000000    -0.186794   
N44      N      0.339080000000     0.995360000000     0.746010000000    -0.168937   
N45      N      0.994180000000     0.398860000000     0.749590000000    -0.187144   
N46      N      0.994280000000     0.333260000000     0.752550000000    -0.168369   
N47      N      0.998600000000     0.148560000000     0.740770000000    -0.184722   
N48      N      0.498940000000     0.083000000000     0.736400000000    -0.16662    
N49      N      0.402960000000     0.746240000000     0.993600000000    -0.187327   
N50      N      0.337470000000     0.744610000000     0.994160000000    -0.173242   
N51      N      0.087360000000     0.741910000000     0.998340000000    -0.186062   
N52      N      0.153000000000     0.742660000000     0.996050000000    -0.168235   
N53      N      0.242500000000     0.901090000000     0.496430000000    -0.185185   
N54      N      0.241180000000     0.835440000000     0.497110000000    -0.166222   
N55      N      0.249200000000     0.585640000000     0.490780000000    -0.181583   
N56      N      0.249720000000     0.651180000000     0.492080000000    -0.171652   
N57      N      0.242350000000     0.987120000000     0.335530000000    -0.185206   
N58      N      0.242590000000     0.990000000000     0.401050000000    -0.168415   
N59      N      0.249730000000     0.996010000000     0.151130000000    -0.186233   
N60      N      0.249430000000     0.998250000000     0.085570000000    -0.168392   
N61      N      0.499780000000     0.738100000000     0.340200000000    -0.183829   
N62      N      0.499420000000     0.742190000000     0.405650000000    -0.166916   
N63      N      0.492520000000     0.745280000000     0.155640000000    -0.184455   
N64      N      0.990420000000     0.745950000000     0.090060000000    -0.16899    
N65      N      0.089250000000     0.486770000000     0.242490000000    -0.183575   
N66      N      0.154760000000     0.486830000000     0.240590000000    -0.166448   
N67      N      0.404640000000     0.495470000000     0.243780000000    -0.184133   
N68      N      0.339080000000     0.495370000000     0.246010000000    -0.167107   
N69      N      0.994180000000     0.898860000000     0.249590000000    -0.187031   
N70      N      0.994280000000     0.833260000000     0.252550000000    -0.168368   
N71      N      0.998600000000     0.648560000000     0.240770000000    -0.184738   
N72      N      0.498940000000     0.583010000000     0.236400000000    -0.166841   
N73      N      0.402960000000     0.746240000000     0.493600000000    -0.184008   
N74      N      0.337470000000     0.744610000000     0.494160000000    -0.171135   
N75      N      0.087360000000     0.741910000000     0.498340000000    -0.184      
N76      N      0.153000000000     0.742660000000     0.496040000000    -0.166011   
N77      N      0.242500000000     0.901090000000     0.996430000000    -0.188463   
N78      N      0.241180000000     0.835440000000     0.997110000000    -0.168371   
N79      N      0.249200000000     0.585640000000     0.990780000000    -0.18486    
N80      N      0.249720000000     0.651180000000     0.992090000000    -0.173885   
N81      N      0.242350000000     0.987120000000     0.835530000000    -0.185215   
N82      N      0.242590000000     0.990000000000     0.901040000000    -0.168302   
N83      N      0.249730000000     0.996010000000     0.651130000000    -0.186263   
N84      N      0.249430000000     0.998250000000     0.585570000000    -0.1688     
N85      N      0.499780000000     0.738100000000     0.840200000000    -0.18385    
N86      N      0.499420000000     0.742190000000     0.905650000000    -0.166835   
N87      N      0.492520000000     0.745280000000     0.655640000000    -0.184492   
N88      N      0.990420000000     0.745950000000     0.590060000000    -0.169436   
N89      N      0.089250000000     0.486770000000     0.742490000000    -0.183609   
N90      N      0.154760000000     0.486830000000     0.740590000000    -0.166446   
N91      N      0.404640000000     0.495470000000     0.743780000000    -0.184121   
N92      N      0.339080000000     0.495370000000     0.746010000000    -0.167148   
N93      N      0.994180000000     0.898860000000     0.749590000000    -0.187117   
N94      N      0.994280000000     0.833260000000     0.752550000000    -0.168369   
N95      N      0.998600000000     0.648560000000     0.740770000000    -0.184758   
N96      N      0.498940000000     0.583010000000     0.736400000000    -0.166868   
N97      N      0.902960000000     0.246240000000     0.993600000000    -0.187262   
N98      N      0.837470000000     0.244610000000     0.994160000000    -0.173238   
N99      N      0.587360000000     0.241910000000     0.998340000000    -0.186479   
N100     N      0.653000000000     0.242660000000     0.996050000000    -0.168257   
N101     N      0.742500000000     0.401090000000     0.496430000000    -0.185247   
N102     N      0.741180000000     0.335440000000     0.497110000000    -0.166221   
N103     N      0.749200000000     0.085640000000     0.490780000000    -0.181272   
N104     N      0.749720000000     0.151180000000     0.492080000000    -0.171657   
N105     N      0.742350000000     0.487120000000     0.335530000000    -0.1835     
N106     N      0.742590000000     0.490000000000     0.401050000000    -0.165793   
N107     N      0.749730000000     0.496010000000     0.151130000000    -0.184531   
N108     N      0.749440000000     0.498250000000     0.085570000000    -0.165824   
N109     N      0.999780000000     0.238100000000     0.340200000000    -0.185936   
N110     N      0.999430000000     0.242190000000     0.405650000000    -0.170062   
N111     N      0.992510000000     0.245270000000     0.155640000000    -0.18655    
N112     N      0.490420000000     0.245950000000     0.090060000000    -0.165823   
N113     N      0.589250000000     0.986770000000     0.242490000000    -0.186705   
N114     N      0.654760000000     0.986830000000     0.240590000000    -0.168185   
N115     N      0.904640000000     0.995470000000     0.243780000000    -0.186732   
N116     N      0.839080000000     0.995360000000     0.246010000000    -0.168841   
N117     N      0.494180000000     0.398860000000     0.249590000000    -0.183938   
N118     N      0.494280000000     0.333260000000     0.252550000000    -0.166274   
N119     N      0.498600000000     0.148560000000     0.240770000000    -0.182529   
N120     N      0.998940000000     0.083000000000     0.236400000000    -0.168514   
N121     N      0.902960000000     0.246240000000     0.493600000000    -0.183949   
N122     N      0.837470000000     0.244610000000     0.494160000000    -0.171134   
N123     N      0.587360000000     0.241910000000     0.498340000000    -0.184415   
N124     N      0.653000000000     0.242660000000     0.496040000000    -0.166031   
N125     N      0.742500000000     0.401090000000     0.996430000000    -0.18853    
N126     N      0.741180000000     0.335440000000     0.997110000000    -0.168374   
N127     N      0.749200000000     0.085640000000     0.990780000000    -0.18454    
N128     N      0.749720000000     0.151180000000     0.992090000000    -0.173885   
N129     N      0.742350000000     0.487120000000     0.835530000000    -0.183508   
N130     N      0.742590000000     0.490000000000     0.901040000000    -0.165679   
N131     N      0.749730000000     0.496010000000     0.651130000000    -0.184554   
N132     N      0.749440000000     0.498250000000     0.585570000000    -0.166223   
N133     N      0.999780000000     0.238100000000     0.840200000000    -0.185957   
N134     N      0.999430000000     0.242190000000     0.905650000000    -0.169979   
N135     N      0.992510000000     0.245270000000     0.655640000000    -0.186594   
N136     N      0.490420000000     0.245950000000     0.590060000000    -0.166259   
N137     N      0.589250000000     0.986770000000     0.742490000000    -0.186744   
N138     N      0.654760000000     0.986830000000     0.740590000000    -0.168185   
N139     N      0.904640000000     0.995470000000     0.743780000000    -0.186722   
N140     N      0.839080000000     0.995360000000     0.746010000000    -0.168885   
N141     N      0.494180000000     0.398860000000     0.749590000000    -0.184021   
N142     N      0.494280000000     0.333260000000     0.752550000000    -0.166272   
N143     N      0.498600000000     0.148560000000     0.740770000000    -0.182546   
N144     N      0.998940000000     0.083000000000     0.736400000000    -0.168541   
N145     N      0.902960000000     0.746240000000     0.993600000000    -0.187287   
N146     N      0.837470000000     0.744610000000     0.994160000000    -0.173236   
N147     N      0.587360000000     0.741910000000     0.998340000000    -0.186507   
N148     N      0.653000000000     0.742660000000     0.996050000000    -0.16826    
N149     N      0.742500000000     0.901090000000     0.496430000000    -0.185218   
N150     N      0.741180000000     0.835440000000     0.497110000000    -0.166216   
N151     N      0.749200000000     0.585640000000     0.490780000000    -0.181601   
N152     N      0.749720000000     0.651180000000     0.492080000000    -0.171657   
N153     N      0.742350000000     0.987120000000     0.335530000000    -0.185227   
N154     N      0.742590000000     0.990000000000     0.401050000000    -0.16843    
N155     N      0.749730000000     0.996010000000     0.151130000000    -0.186241   
N156     N      0.749440000000     0.998250000000     0.085570000000    -0.168432   
N157     N      0.999780000000     0.738100000000     0.340200000000    -0.18595    
N158     N      0.999430000000     0.742190000000     0.405650000000    -0.170084   
N159     N      0.992510000000     0.745280000000     0.155640000000    -0.186562   
N160     N      0.490420000000     0.745950000000     0.090060000000    -0.16584    
N161     N      0.589250000000     0.486770000000     0.242490000000    -0.184069   
N162     N      0.654760000000     0.486830000000     0.240590000000    -0.166461   
N163     N      0.904640000000     0.495470000000     0.243780000000    -0.184063   
N164     N      0.839080000000     0.495370000000     0.246010000000    -0.167055   
N165     N      0.494180000000     0.898860000000     0.249590000000    -0.183914   
N166     N      0.494280000000     0.833260000000     0.252550000000    -0.166275   
N167     N      0.498600000000     0.648560000000     0.240770000000    -0.182559   
N168     N      0.998940000000     0.583010000000     0.236400000000    -0.168768   
N169     N      0.902960000000     0.746240000000     0.493600000000    -0.18397    
N170     N      0.837470000000     0.744610000000     0.494160000000    -0.17113    
N171     N      0.587360000000     0.741910000000     0.498340000000    -0.18444    
N172     N      0.653000000000     0.742660000000     0.496040000000    -0.16603    
N173     N      0.742500000000     0.901090000000     0.996430000000    -0.188501   
N174     N      0.741180000000     0.835440000000     0.997110000000    -0.168369   
N175     N      0.749200000000     0.585640000000     0.990780000000    -0.184881   
N176     N      0.749720000000     0.651180000000     0.992090000000    -0.173892   
N177     N      0.742350000000     0.987120000000     0.835530000000    -0.185236   
N178     N      0.742590000000     0.990000000000     0.901040000000    -0.168317   
N179     N      0.749730000000     0.996010000000     0.651130000000    -0.186271   
N180     N      0.749440000000     0.998250000000     0.585570000000    -0.168841   
N181     N      0.999780000000     0.738100000000     0.840200000000    -0.18597    
N182     N      0.999430000000     0.742190000000     0.905650000000    -0.170001   
N183     N      0.992510000000     0.745280000000     0.655640000000    -0.186606   
N184     N      0.490420000000     0.745950000000     0.590060000000    -0.166276   
N185     N      0.589250000000     0.486770000000     0.742490000000    -0.184104   
N186     N      0.654760000000     0.486830000000     0.740590000000    -0.166458   
N187     N      0.904640000000     0.495470000000     0.743780000000    -0.18405    
N188     N      0.839080000000     0.495370000000     0.746010000000    -0.167096   
N189     N      0.494180000000     0.898860000000     0.749590000000    -0.183997   
N190     N      0.494280000000     0.833260000000     0.752550000000    -0.166273   
N191     N      0.498600000000     0.648560000000     0.740770000000    -0.182576   
N192     N      0.998940000000     0.583010000000     0.736400000000    -0.168796   
Ni1      Ni     0.497170000000     0.993520000000     0.271110000000     1.0028     
Ni2      Ni     0.996730000000     0.988650000000     0.215110000000     1.01013    
Ni3      Ni     0.468340000000     0.239870000000     0.249080000000     1.01715    
Ni4      Ni     0.024400000000     0.242090000000     0.246680000000     1.01773    
Ni5      Ni     0.248700000000     0.463050000000     0.241700000000     1.01119    
Ni6      Ni     0.245100000000     0.019150000000     0.245040000000     1.03339    
Ni7      Ni     0.217880000000     0.494730000000     0.494400000000     1.01912    
Ni8      Ni     0.273900000000     0.991820000000     0.492350000000     1.00966    
Ni9      Ni     0.994180000000     0.216030000000     0.998290000000     0.992657   
Ni10     Ni     0.996100000000     0.272130000000     0.497290000000     1.01181    
Ni11     Ni     0.245000000000     0.243790000000     0.467090000000     1.02694    
Ni12     Ni     0.245730000000     0.242520000000     0.023000000000     1.00961    
Ni13     Ni     0.497170000000     0.993520000000     0.771110000000     1.0028     
Ni14     Ni     0.996730000000     0.988650000000     0.715110000000     1.00972    
Ni15     Ni     0.468340000000     0.239870000000     0.749080000000     1.01716    
Ni16     Ni     0.024400000000     0.242090000000     0.746680000000     1.01773    
Ni17     Ni     0.248700000000     0.463050000000     0.741700000000     1.01118    
Ni18     Ni     0.245100000000     0.019150000000     0.745040000000     1.03342    
Ni19     Ni     0.217880000000     0.494730000000     0.994400000000     1.0127     
Ni20     Ni     0.273900000000     0.991820000000     0.992350000000     1.0034     
Ni21     Ni     0.994180000000     0.216030000000     0.498290000000     1.00548    
Ni22     Ni     0.996100000000     0.272130000000     0.997290000000     1.00591    
Ni23     Ni     0.245000000000     0.243790000000     0.967090000000     1.01912    
Ni24     Ni     0.245730000000     0.242520000000     0.523000000000     1.00585    
Ni25     Ni     0.497170000000     0.493520000000     0.271110000000     1.0081     
Ni26     Ni     0.996730000000     0.488650000000     0.215110000000     1.01505    
Ni27     Ni     0.468340000000     0.739870000000     0.249080000000     1.01714    
Ni28     Ni     0.024400000000     0.742090000000     0.246680000000     1.01772    
Ni29     Ni     0.248700000000     0.963050000000     0.241700000000     1.00493    
Ni30     Ni     0.245100000000     0.519150000000     0.245040000000     1.0305     
Ni31     Ni     0.217880000000     0.994730000000     0.494400000000     1.01375    
Ni32     Ni     0.273900000000     0.491820000000     0.492350000000     1.01464    
Ni33     Ni     0.994180000000     0.716030000000     0.998290000000     0.992327   
Ni34     Ni     0.996100000000     0.772130000000     0.497290000000     1.01174    
Ni35     Ni     0.245000000000     0.743780000000     0.467090000000     1.02698    
Ni36     Ni     0.245730000000     0.742520000000     0.023000000000     1.00943    
Ni37     Ni     0.497170000000     0.493520000000     0.771110000000     1.0081     
Ni38     Ni     0.996730000000     0.488650000000     0.715110000000     1.01465    
Ni39     Ni     0.468340000000     0.739870000000     0.749080000000     1.01716    
Ni40     Ni     0.024400000000     0.742090000000     0.746680000000     1.01772    
Ni41     Ni     0.248700000000     0.963050000000     0.741700000000     1.00492    
Ni42     Ni     0.245100000000     0.519150000000     0.745040000000     1.03053    
Ni43     Ni     0.217880000000     0.994730000000     0.994400000000     1.00736    
Ni44     Ni     0.273900000000     0.491820000000     0.992350000000     1.00836    
Ni45     Ni     0.994180000000     0.716030000000     0.498290000000     1.00518    
Ni46     Ni     0.996100000000     0.772130000000     0.997290000000     1.00583    
Ni47     Ni     0.245000000000     0.743780000000     0.967090000000     1.01915    
Ni48     Ni     0.245730000000     0.742520000000     0.523000000000     1.00567    
Ni49     Ni     0.997170000000     0.993520000000     0.271110000000     0.990258   
Ni50     Ni     0.496730000000     0.988650000000     0.215110000000     1.01592    
Ni51     Ni     0.968340000000     0.239870000000     0.249080000000     1.00961    
Ni52     Ni     0.524400000000     0.242090000000     0.246680000000     1.014      
Ni53     Ni     0.748710000000     0.463050000000     0.241700000000     1.01121    
Ni54     Ni     0.745100000000     0.019150000000     0.245040000000     1.03339    
Ni55     Ni     0.717880000000     0.494730000000     0.494400000000     1.01874    
Ni56     Ni     0.773900000000     0.991820000000     0.492350000000     1.00957    
Ni57     Ni     0.494180000000     0.216030000000     0.998290000000     0.998516   
Ni58     Ni     0.496110000000     0.272130000000     0.497290000000     1.01835    
Ni59     Ni     0.745000000000     0.243790000000     0.467090000000     1.02695    
Ni60     Ni     0.745730000000     0.242520000000     0.023000000000     1.0096     
Ni61     Ni     0.997170000000     0.993520000000     0.771110000000     0.990248   
Ni62     Ni     0.496730000000     0.988650000000     0.715110000000     1.01551    
Ni63     Ni     0.968340000000     0.239870000000     0.749080000000     1.00962    
Ni64     Ni     0.524400000000     0.242090000000     0.746680000000     1.01399    
Ni65     Ni     0.748710000000     0.463050000000     0.741700000000     1.01121    
Ni66     Ni     0.745100000000     0.019150000000     0.745040000000     1.03343    
Ni67     Ni     0.717880000000     0.494730000000     0.994400000000     1.01232    
Ni68     Ni     0.773900000000     0.991820000000     0.992350000000     1.00331    
Ni69     Ni     0.494180000000     0.216030000000     0.498290000000     1.0114     
Ni70     Ni     0.496110000000     0.272130000000     0.997290000000     1.01241    
Ni71     Ni     0.745000000000     0.243790000000     0.967090000000     1.01913    
Ni72     Ni     0.745730000000     0.242520000000     0.523000000000     1.00584    
Ni73     Ni     0.997170000000     0.493520000000     0.271110000000     0.995501   
Ni74     Ni     0.496730000000     0.488650000000     0.215110000000     1.02086    
Ni75     Ni     0.968340000000     0.739870000000     0.249080000000     1.0096     
Ni76     Ni     0.524400000000     0.742090000000     0.246680000000     1.01399    
Ni77     Ni     0.748710000000     0.963050000000     0.241700000000     1.00495    
Ni78     Ni     0.745100000000     0.519150000000     0.245040000000     1.03051    
Ni79     Ni     0.717880000000     0.994730000000     0.494400000000     1.01337    
Ni80     Ni     0.773900000000     0.491820000000     0.492350000000     1.01455    
Ni81     Ni     0.494180000000     0.716030000000     0.998290000000     0.998195   
Ni82     Ni     0.496110000000     0.772130000000     0.497290000000     1.01827    
Ni83     Ni     0.745000000000     0.743780000000     0.467090000000     1.027      
Ni84     Ni     0.745730000000     0.742520000000     0.023000000000     1.00943    
Ni85     Ni     0.997170000000     0.493520000000     0.771110000000     0.995495   
Ni86     Ni     0.496730000000     0.488650000000     0.715110000000     1.02046    
Ni87     Ni     0.968340000000     0.739870000000     0.749080000000     1.00961    
Ni88     Ni     0.524400000000     0.742090000000     0.746680000000     1.01397    
Ni89     Ni     0.748710000000     0.963050000000     0.741700000000     1.00493    
Ni90     Ni     0.745100000000     0.519150000000     0.745040000000     1.03054    
Ni91     Ni     0.717880000000     0.994730000000     0.994400000000     1.00697    
Ni92     Ni     0.773900000000     0.491820000000     0.992350000000     1.00827    
Ni93     Ni     0.494180000000     0.716030000000     0.498290000000     1.0111     
Ni94     Ni     0.496110000000     0.772130000000     0.997290000000     1.01233    
Ni95     Ni     0.745000000000     0.743780000000     0.967090000000     1.01916    
Ni96     Ni     0.745730000000     0.742520000000     0.523000000000     1.00566    
O1       O      0.452220000000     0.497680000000     0.269330000000    -0.441812   
O2       O      0.042240000000     0.990110000000     0.269070000000    -0.438826   
O3       O      0.501080000000     0.038140000000     0.265810000000    -0.437863   
O4       O      0.992960000000     0.448110000000     0.272600000000    -0.437929   
O5       O      0.496870000000     0.444030000000     0.220350000000    -0.448322   
O6       O      0.996810000000     0.034060000000     0.213530000000    -0.420395   
O7       O      0.041860000000     0.487720000000     0.216540000000    -0.438967   
O8       O      0.451530000000     0.988850000000     0.217540000000    -0.441811   
O9       O      0.471390000000     0.195190000000     0.244340000000    -0.444167   
O10      O      0.469060000000     0.285210000000     0.253820000000    -0.429666   
O11      O      0.468290000000     0.243500000000     0.203960000000    -0.443344   
O12      O      0.472130000000     0.235340000000     0.293870000000    -0.441134   
O13      O      0.024250000000     0.241370000000     0.291970000000    -0.434559   
O14      O      0.020790000000     0.243800000000     0.201650000000    -0.438801   
O15      O      0.021210000000     0.286960000000     0.247620000000    -0.4378     
O16      O      0.023820000000     0.196580000000     0.245580000000    -0.435803   
O17      O      0.293420000000     0.467170000000     0.243060000000    -0.444358   
O18      O      0.203250000000     0.462640000000     0.239470000000    -0.430298   
O19      O      0.250870000000     0.467330000000     0.196850000000    -0.441911   
O20      O      0.247400000000     0.462640000000     0.287290000000    -0.438555   
O21      O      0.242840000000     0.014990000000     0.289630000000    -0.43869    
O22      O      0.246380000000     0.019640000000     0.199740000000    -0.437711   
O23      O      0.200370000000     0.015030000000     0.243690000000    -0.439991   
O24      O      0.290540000000     0.019550000000     0.247180000000    -0.425603   
O25      O      0.218190000000     0.449470000000     0.999050000000    -0.443161   
O26      O      0.221440000000     0.039380000000     0.489820000000    -0.430698   
O27      O      0.217990000000     0.490980000000     0.449240000000    -0.432782   
O28      O      0.221570000000     0.999390000000     0.039260000000    -0.429122   
O29      O      0.273480000000     0.491490000000     0.037640000000    -0.436196   
O30      O      0.270530000000     0.991410000000     0.447220000000    -0.440424   
O31      O      0.273800000000     0.037280000000     0.992970000000    -0.435239   
O32      O      0.270160000000     0.447020000000     0.491780000000    -0.449213   
O33      O      0.489260000000     0.218910000000     0.043240000000    -0.426405   
O34      O      0.998200000000     0.216930000000     0.453250000000    -0.442024   
O35      O      0.039480000000     0.216810000000     0.002990000000    -0.423555   
O36      O      0.449570000000     0.219190000000     0.493260000000    -0.443029   
O37      O      0.450720000000     0.271510000000     0.998070000000    -0.440565   
O38      O      0.040890000000     0.268930000000     0.496270000000    -0.440848   
O39      O      0.496210000000     0.269470000000     0.452140000000    -0.427506   
O40      O      0.996790000000     0.270940000000     0.042570000000    -0.437866   
O41      O      0.200040000000     0.246130000000     0.469490000000    -0.43235    
O42      O      0.290070000000     0.241150000000     0.468570000000    -0.437199   
O43      O      0.242600000000     0.198740000000     0.467840000000    -0.443169   
O44      O      0.247260000000     0.288810000000     0.470420000000    -0.442545   
O45      O      0.240020000000     0.287440000000     0.022410000000    -0.422615   
O46      O      0.251700000000     0.197680000000     0.019610000000    -0.427772   
O47      O      0.290570000000     0.248320000000     0.020640000000    -0.433428   
O48      O      0.200700000000     0.237080000000     0.021190000000    -0.431252   
O49      O      0.319230000000     0.174960000000     0.476170000000    -0.241193   
O50      O      0.343760000000     0.191780000000     0.432600000000    -0.217316   
O51      O      0.175020000000     0.303950000000     0.464750000000    -0.310655   
O52      O      0.138790000000     0.290790000000     0.429220000000    -0.219853   
O53      O      0.182250000000     0.311140000000     0.029720000000    -0.308084   
O54      O      0.192690000000     0.349230000000     0.064220000000    -0.230143   
O55      O      0.318810000000     0.172360000000     0.506440000000    -0.239586   
O56      O      0.307890000000     0.142850000000     0.048770000000    -0.211433   
O57      O      0.174660000000     0.041520000000     0.386400000000    -0.333756   
O58      O      0.213150000000     0.049640000000     0.421110000000    -0.230272   
O59      O      0.227320000000     0.061250000000     0.061700000000    -0.32141    
O60      O      0.191000000000     0.056820000000     0.099310000000    -0.227371   
O61      O      0.540260000000     0.301430000000     0.422500000000    -0.314608   
O62      O      0.075080000000     0.271230000000     0.397340000000    -0.219879   
O63      O      0.427270000000     0.225300000000     0.065430000000    -0.32514    
O64      O      0.930260000000     0.188920000000     0.103120000000    -0.227975   
O65      O      0.179610000000     0.465800000000     0.177740000000    -0.323779   
O66      O      0.141680000000     0.429670000000     0.180470000000    -0.229767   
O67      O      0.354180000000     0.058320000000     0.303940000000    -0.326488   
O68      O      0.316940000000     0.021430000000     0.306160000000    -0.222564   
O69      O      0.472300000000     0.308890000000     0.315060000000    -0.324521   
O70      O      0.936990000000     0.347600000000     0.312370000000    -0.231846   
O71      O      0.442380000000     0.059410000000     0.198210000000    -0.314384   
O72      O      0.417070000000     0.093890000000     0.228510000000    -0.225583   
O73      O      0.452220000000     0.497680000000     0.769330000000    -0.441892   
O74      O      0.042240000000     0.990110000000     0.769070000000    -0.438905   
O75      O      0.501080000000     0.038140000000     0.765810000000    -0.438048   
O76      O      0.992960000000     0.448110000000     0.772590000000    -0.438193   
O77      O      0.496870000000     0.444030000000     0.720350000000    -0.448493   
O78      O      0.996810000000     0.034060000000     0.713530000000    -0.420427   
O79      O      0.041860000000     0.487720000000     0.716540000000    -0.439086   
O80      O      0.451530000000     0.988850000000     0.717540000000    -0.441914   
O81      O      0.471390000000     0.195190000000     0.744340000000    -0.444178   
O82      O      0.469060000000     0.285210000000     0.753820000000    -0.429668   
O83      O      0.468290000000     0.243500000000     0.703960000000    -0.443378   
O84      O      0.472130000000     0.235340000000     0.793870000000    -0.441139   
O85      O      0.024250000000     0.241370000000     0.791970000000    -0.434578   
O86      O      0.020790000000     0.243800000000     0.701650000000    -0.438831   
O87      O      0.021210000000     0.286960000000     0.747610000000    -0.437787   
O88      O      0.023820000000     0.196580000000     0.745580000000    -0.435826   
O89      O      0.293420000000     0.467170000000     0.743070000000    -0.444395   
O90      O      0.203250000000     0.462640000000     0.739470000000    -0.430299   
O91      O      0.250870000000     0.467330000000     0.696850000000    -0.441961   
O92      O      0.247400000000     0.462640000000     0.787290000000    -0.438551   
O93      O      0.242840000000     0.014990000000     0.789630000000    -0.438681   
O94      O      0.246380000000     0.019640000000     0.699740000000    -0.437735   
O95      O      0.200370000000     0.015030000000     0.743690000000    -0.439998   
O96      O      0.290540000000     0.019550000000     0.747180000000    -0.425613   
O97      O      0.218190000000     0.449470000000     0.499050000000    -0.441793   
O98      O      0.221440000000     0.039380000000     0.989820000000    -0.431204   
O99      O      0.217990000000     0.490980000000     0.949240000000    -0.431847   
O100     O      0.221570000000     0.999390000000     0.539260000000    -0.434045   
O101     O      0.273480000000     0.491490000000     0.537640000000    -0.441238   
O102     O      0.270530000000     0.991410000000     0.947220000000    -0.439503   
O103     O      0.273800000000     0.037280000000     0.492970000000    -0.43386    
O104     O      0.270160000000     0.447020000000     0.991780000000    -0.449657   
O105     O      0.489260000000     0.218910000000     0.543240000000    -0.431733   
O106     O      0.998200000000     0.216930000000     0.953250000000    -0.440732   
O107     O      0.039480000000     0.216810000000     0.502990000000    -0.434215   
O108     O      0.449570000000     0.219190000000     0.993270000000    -0.442541   
O109     O      0.450720000000     0.271510000000     0.498070000000    -0.439316   
O110     O      0.040890000000     0.268930000000     0.996270000000    -0.439489   
O111     O      0.496210000000     0.269470000000     0.952140000000    -0.42657    
O112     O      0.996790000000     0.270940000000     0.542570000000    -0.44284    
O113     O      0.200040000000     0.246130000000     0.969490000000    -0.430208   
O114     O      0.290070000000     0.241150000000     0.968570000000    -0.435069   
O115     O      0.242600000000     0.198740000000     0.967840000000    -0.440987   
O116     O      0.247260000000     0.288810000000     0.970420000000    -0.440491   
O117     O      0.240020000000     0.287440000000     0.522410000000    -0.428069   
O118     O      0.251700000000     0.197680000000     0.519610000000    -0.433181   
O119     O      0.290570000000     0.248320000000     0.520640000000    -0.438987   
O120     O      0.200700000000     0.237080000000     0.521190000000    -0.436807   
O121     O      0.319230000000     0.174960000000     0.976170000000    -0.24642    
O122     O      0.343760000000     0.191780000000     0.932600000000    -0.217962   
O123     O      0.175020000000     0.303950000000     0.964750000000    -0.31203    
O124     O      0.138790000000     0.290790000000     0.929220000000    -0.220168   
O125     O      0.182250000000     0.311140000000     0.529720000000    -0.310622   
O126     O      0.192690000000     0.349230000000     0.564220000000    -0.23099    
O127     O      0.318810000000     0.172360000000     0.006440000000    -0.233639   
O128     O      0.307890000000     0.142850000000     0.548770000000    -0.21248    
O129     O      0.174660000000     0.041520000000     0.886390000000    -0.33374    
O130     O      0.213150000000     0.049640000000     0.921110000000    -0.230402   
O131     O      0.227320000000     0.061250000000     0.561700000000    -0.322322   
O132     O      0.191000000000     0.056820000000     0.599310000000    -0.228123   
O133     O      0.540260000000     0.301430000000     0.922500000000    -0.314812   
O134     O      0.075080000000     0.271230000000     0.897340000000    -0.220052   
O135     O      0.427270000000     0.225300000000     0.565430000000    -0.326133   
O136     O      0.930260000000     0.188920000000     0.603120000000    -0.228627   
O137     O      0.179610000000     0.465800000000     0.677740000000    -0.323851   
O138     O      0.141680000000     0.429670000000     0.680470000000    -0.230076   
O139     O      0.354180000000     0.058320000000     0.803940000000    -0.326536   
O140     O      0.316940000000     0.021430000000     0.806160000000    -0.222625   
O141     O      0.472300000000     0.308890000000     0.815060000000    -0.324632   
O142     O      0.936990000000     0.347600000000     0.812370000000    -0.232106   
O143     O      0.442380000000     0.059410000000     0.698210000000    -0.314551   
O144     O      0.417070000000     0.093890000000     0.728510000000    -0.225656   
O145     O      0.452220000000     0.997680000000     0.269330000000    -0.442975   
O146     O      0.042240000000     0.490110000000     0.269070000000    -0.437793   
O147     O      0.501080000000     0.538140000000     0.265810000000    -0.441823   
O148     O      0.992960000000     0.948110000000     0.272600000000    -0.437301   
O149     O      0.496870000000     0.944030000000     0.220350000000    -0.447527   
O150     O      0.996810000000     0.534060000000     0.213530000000    -0.4244     
O151     O      0.041860000000     0.987720000000     0.216540000000    -0.43939    
O152     O      0.451530000000     0.488850000000     0.217540000000    -0.441358   
O153     O      0.471390000000     0.695190000000     0.244340000000    -0.444212   
O154     O      0.469060000000     0.785210000000     0.253820000000    -0.429648   
O155     O      0.468290000000     0.743510000000     0.203960000000    -0.443343   
O156     O      0.472130000000     0.735340000000     0.293870000000    -0.441146   
O157     O      0.024250000000     0.741370000000     0.291970000000    -0.434576   
O158     O      0.020790000000     0.743800000000     0.201650000000    -0.438821   
O159     O      0.021210000000     0.786960000000     0.247620000000    -0.437806   
O160     O      0.023820000000     0.696580000000     0.245580000000    -0.435842   
O161     O      0.293420000000     0.967170000000     0.243060000000    -0.442713   
O162     O      0.203250000000     0.962640000000     0.239470000000    -0.428677   
O163     O      0.250870000000     0.967330000000     0.196850000000    -0.440144   
O164     O      0.247400000000     0.962630000000     0.287290000000    -0.436888   
O165     O      0.242840000000     0.514990000000     0.289630000000    -0.443107   
O166     O      0.246380000000     0.519640000000     0.199740000000    -0.442368   
O167     O      0.200370000000     0.515030000000     0.243690000000    -0.444543   
O168     O      0.290540000000     0.519550000000     0.247180000000    -0.430092   
O169     O      0.218190000000     0.949470000000     0.999050000000    -0.44247    
O170     O      0.221440000000     0.539380000000     0.489820000000    -0.434546   
O171     O      0.217990000000     0.990980000000     0.449240000000    -0.433772   
O172     O      0.221570000000     0.499390000000     0.039260000000    -0.428005   
O173     O      0.273480000000     0.991490000000     0.037640000000    -0.436575   
O174     O      0.270530000000     0.491400000000     0.447220000000    -0.439861   
O175     O      0.273800000000     0.537280000000     0.992970000000    -0.439324   
O176     O      0.270160000000     0.947020000000     0.491780000000    -0.448449   
O177     O      0.489260000000     0.718910000000     0.043240000000    -0.426488   
O178     O      0.998200000000     0.716930000000     0.453250000000    -0.442131   
O179     O      0.039480000000     0.716810000000     0.002990000000    -0.423633   
O180     O      0.449570000000     0.719190000000     0.493260000000    -0.443109   
O181     O      0.450720000000     0.771510000000     0.998070000000    -0.440628   
O182     O      0.040890000000     0.768930000000     0.496270000000    -0.44089    
O183     O      0.496210000000     0.769470000000     0.452140000000    -0.427555   
O184     O      0.996790000000     0.770940000000     0.042570000000    -0.437918   
O185     O      0.200040000000     0.746130000000     0.469490000000    -0.432361   
O186     O      0.290070000000     0.741150000000     0.468570000000    -0.437213   
O187     O      0.242600000000     0.698740000000     0.467840000000    -0.44334    
O188     O      0.247260000000     0.788810000000     0.470420000000    -0.442435   
O189     O      0.240020000000     0.787440000000     0.022410000000    -0.422555   
O190     O      0.251700000000     0.697670000000     0.019610000000    -0.42772    
O191     O      0.290570000000     0.748320000000     0.020640000000    -0.433401   
O192     O      0.200700000000     0.737080000000     0.021190000000    -0.431232   
O193     O      0.319230000000     0.674960000000     0.476170000000    -0.24122    
O194     O      0.343760000000     0.691780000000     0.432600000000    -0.217478   
O195     O      0.175020000000     0.803960000000     0.464750000000    -0.310675   
O196     O      0.138790000000     0.790780000000     0.429220000000    -0.219915   
O197     O      0.182250000000     0.811140000000     0.029720000000    -0.308102   
O198     O      0.192690000000     0.849230000000     0.064220000000    -0.230274   
O199     O      0.318810000000     0.672360000000     0.506440000000    -0.23966    
O200     O      0.307890000000     0.642850000000     0.048770000000    -0.211802   
O201     O      0.174660000000     0.541520000000     0.386400000000    -0.334689   
O202     O      0.213150000000     0.549640000000     0.421110000000    -0.231698   
O203     O      0.227320000000     0.561250000000     0.061700000000    -0.322779   
O204     O      0.191000000000     0.556820000000     0.099310000000    -0.228582   
O205     O      0.540260000000     0.801430000000     0.422500000000    -0.314697   
O206     O      0.075080000000     0.771230000000     0.397340000000    -0.219955   
O207     O      0.427270000000     0.725300000000     0.065430000000    -0.32517    
O208     O      0.930260000000     0.688920000000     0.103120000000    -0.228265   
O209     O      0.179610000000     0.965800000000     0.177740000000    -0.32467    
O210     O      0.141680000000     0.929670000000     0.180470000000    -0.230115   
O211     O      0.354180000000     0.558320000000     0.303940000000    -0.327046   
O212     O      0.316940000000     0.521430000000     0.306160000000    -0.224877   
O213     O      0.472300000000     0.808890000000     0.315060000000    -0.324565   
O214     O      0.936990000000     0.847600000000     0.312370000000    -0.232071   
O215     O      0.442380000000     0.559410000000     0.198210000000    -0.315182   
O216     O      0.417070000000     0.593890000000     0.228510000000    -0.22602    
O217     O      0.452220000000     0.997680000000     0.769330000000    -0.443055   
O218     O      0.042240000000     0.490110000000     0.769070000000    -0.437871   
O219     O      0.501080000000     0.538140000000     0.765810000000    -0.442015   
O220     O      0.992960000000     0.948110000000     0.772590000000    -0.437563   
O221     O      0.496870000000     0.944030000000     0.720350000000    -0.447696   
O222     O      0.996810000000     0.534060000000     0.713530000000    -0.424442   
O223     O      0.041860000000     0.987720000000     0.716540000000    -0.43951    
O224     O      0.451530000000     0.488850000000     0.717540000000    -0.441461   
O225     O      0.471390000000     0.695190000000     0.744340000000    -0.444223   
O226     O      0.469060000000     0.785210000000     0.753820000000    -0.42965    
O227     O      0.468290000000     0.743510000000     0.703960000000    -0.443377   
O228     O      0.472130000000     0.735340000000     0.793870000000    -0.441151   
O229     O      0.024250000000     0.741370000000     0.791970000000    -0.434595   
O230     O      0.020790000000     0.743800000000     0.701650000000    -0.438851   
O231     O      0.021210000000     0.786960000000     0.747610000000    -0.437793   
O232     O      0.023820000000     0.696580000000     0.745580000000    -0.435866   
O233     O      0.293420000000     0.967170000000     0.743070000000    -0.442747   
O234     O      0.203250000000     0.962640000000     0.739470000000    -0.428675   
O235     O      0.250870000000     0.967330000000     0.696850000000    -0.44019    
O236     O      0.247400000000     0.962630000000     0.787290000000    -0.436882   
O237     O      0.242840000000     0.514990000000     0.789630000000    -0.443104   
O238     O      0.246380000000     0.519640000000     0.699740000000    -0.442405   
O239     O      0.200370000000     0.515030000000     0.743690000000    -0.444559   
O240     O      0.290540000000     0.519550000000     0.747180000000    -0.430111   
O241     O      0.218190000000     0.949470000000     0.499050000000    -0.441101   
O242     O      0.221440000000     0.539380000000     0.989820000000    -0.435052   
O243     O      0.217990000000     0.990980000000     0.949240000000    -0.432838   
O244     O      0.221570000000     0.499390000000     0.539260000000    -0.43293    
O245     O      0.273480000000     0.991490000000     0.537640000000    -0.441613   
O246     O      0.270530000000     0.491400000000     0.947220000000    -0.438938   
O247     O      0.273800000000     0.537280000000     0.492970000000    -0.437944   
O248     O      0.270160000000     0.947020000000     0.991780000000    -0.448894   
O249     O      0.489260000000     0.718910000000     0.543240000000    -0.431828   
O250     O      0.998200000000     0.716930000000     0.953250000000    -0.440836   
O251     O      0.039480000000     0.716810000000     0.502990000000    -0.434315   
O252     O      0.449570000000     0.719190000000     0.993270000000    -0.442619   
O253     O      0.450720000000     0.771510000000     0.498070000000    -0.439379   
O254     O      0.040890000000     0.768930000000     0.996270000000    -0.439527   
O255     O      0.496210000000     0.769470000000     0.952140000000    -0.426617   
O256     O      0.996790000000     0.770940000000     0.542570000000    -0.442898   
O257     O      0.200040000000     0.746130000000     0.969490000000    -0.430216   
O258     O      0.290070000000     0.741150000000     0.968570000000    -0.435079   
O259     O      0.242600000000     0.698740000000     0.967840000000    -0.441152   
O260     O      0.247260000000     0.788810000000     0.970420000000    -0.44038    
O261     O      0.240020000000     0.787440000000     0.522410000000    -0.428014   
O262     O      0.251700000000     0.697670000000     0.519610000000    -0.433144   
O263     O      0.290570000000     0.748320000000     0.520640000000    -0.438969   
O264     O      0.200700000000     0.737080000000     0.521190000000    -0.436797   
O265     O      0.319230000000     0.674960000000     0.976170000000    -0.246459   
O266     O      0.343760000000     0.691780000000     0.932600000000    -0.218126   
O267     O      0.175020000000     0.803960000000     0.964750000000    -0.312051   
O268     O      0.138790000000     0.790780000000     0.929220000000    -0.22023    
O269     O      0.182250000000     0.811140000000     0.529720000000    -0.310642   
O270     O      0.192690000000     0.849230000000     0.564220000000    -0.231121   
O271     O      0.318810000000     0.672360000000     0.006440000000    -0.233697   
O272     O      0.307890000000     0.642850000000     0.548770000000    -0.212853   
O273     O      0.174660000000     0.541520000000     0.886390000000    -0.334673   
O274     O      0.213150000000     0.549640000000     0.921110000000    -0.231828   
O275     O      0.227320000000     0.561250000000     0.561700000000    -0.323701   
O276     O      0.191000000000     0.556820000000     0.599310000000    -0.229342   
O277     O      0.540260000000     0.801430000000     0.922500000000    -0.314901   
O278     O      0.075080000000     0.771230000000     0.897340000000    -0.220129   
O279     O      0.427270000000     0.725300000000     0.565430000000    -0.326165   
O280     O      0.930260000000     0.688920000000     0.603120000000    -0.22892    
O281     O      0.179610000000     0.965800000000     0.677740000000    -0.324744   
O282     O      0.141680000000     0.929670000000     0.680470000000    -0.230425   
O283     O      0.354180000000     0.558320000000     0.803940000000    -0.327095   
O284     O      0.316940000000     0.521430000000     0.806160000000    -0.224942   
O285     O      0.472300000000     0.808890000000     0.815060000000    -0.324676   
O286     O      0.936990000000     0.847600000000     0.812370000000    -0.232331   
O287     O      0.442380000000     0.559410000000     0.698210000000    -0.315352   
O288     O      0.417070000000     0.593890000000     0.728510000000    -0.226093   
O289     O      0.952220000000     0.497680000000     0.269330000000    -0.440477   
O290     O      0.542240000000     0.990110000000     0.269070000000    -0.444198   
O291     O      0.001080000000     0.038140000000     0.265810000000    -0.427059   
O292     O      0.492960000000     0.448110000000     0.272600000000    -0.438554   
O293     O      0.996870000000     0.444030000000     0.220350000000    -0.449529   
O294     O      0.496810000000     0.034060000000     0.213530000000    -0.421619   
O295     O      0.541860000000     0.487720000000     0.216540000000    -0.443853   
O296     O      0.951530000000     0.988850000000     0.217540000000    -0.440921   
O297     O      0.971390000000     0.195190000000     0.244340000000    -0.442256   
O298     O      0.969060000000     0.285210000000     0.253820000000    -0.427592   
O299     O      0.968290000000     0.243500000000     0.203960000000    -0.441517   
O300     O      0.972130000000     0.235340000000     0.293870000000    -0.439085   
O301     O      0.524250000000     0.241370000000     0.291970000000    -0.440149   
O302     O      0.520790000000     0.243800000000     0.201650000000    -0.444453   
O303     O      0.521210000000     0.286960000000     0.247620000000    -0.44321    
O304     O      0.523820000000     0.196580000000     0.245580000000    -0.441516   
O305     O      0.793420000000     0.467170000000     0.243060000000    -0.444579   
O306     O      0.703250000000     0.462640000000     0.239470000000    -0.430223   
O307     O      0.750870000000     0.467330000000     0.196850000000    -0.441926   
O308     O      0.747400000000     0.462640000000     0.287290000000    -0.438594   
O309     O      0.742840000000     0.014990000000     0.289630000000    -0.438695   
O310     O      0.746380000000     0.019640000000     0.199740000000    -0.43773    
O311     O      0.700370000000     0.015030000000     0.243690000000    -0.440032   
O312     O      0.790540000000     0.019550000000     0.247180000000    -0.425697   
O313     O      0.718190000000     0.449470000000     0.999050000000    -0.443297   
O314     O      0.721440000000     0.039380000000     0.489820000000    -0.430782   
O315     O      0.717990000000     0.490980000000     0.449240000000    -0.432904   
O316     O      0.721570000000     0.999390000000     0.039260000000    -0.42923    
O317     O      0.773480000000     0.491490000000     0.037640000000    -0.436262   
O318     O      0.770530000000     0.991410000000     0.447220000000    -0.440487   
O319     O      0.773800000000     0.037280000000     0.992970000000    -0.435299   
O320     O      0.770160000000     0.447020000000     0.491780000000    -0.449284   
O321     O      0.989260000000     0.218910000000     0.043240000000    -0.426841   
O322     O      0.498200000000     0.216930000000     0.453250000000    -0.44131    
O323     O      0.539480000000     0.216810000000     0.002990000000    -0.428498   
O324     O      0.949570000000     0.219190000000     0.493260000000    -0.442092   
O325     O      0.950720000000     0.271510000000     0.998070000000    -0.439829   
O326     O      0.540890000000     0.268930000000     0.496270000000    -0.445765   
O327     O      0.996210000000     0.269470000000     0.452140000000    -0.428685   
O328     O      0.496790000000     0.270940000000     0.042570000000    -0.436606   
O329     O      0.700040000000     0.246130000000     0.469490000000    -0.432389   
O330     O      0.790070000000     0.241150000000     0.468570000000    -0.437205   
O331     O      0.742600000000     0.198740000000     0.467840000000    -0.443197   
O332     O      0.747260000000     0.288810000000     0.470420000000    -0.442572   
O333     O      0.740020000000     0.287440000000     0.022410000000    -0.422603   
O334     O      0.751700000000     0.197680000000     0.019610000000    -0.427778   
O335     O      0.790570000000     0.248320000000     0.020640000000    -0.433431   
O336     O      0.700700000000     0.237080000000     0.021190000000    -0.431281   
O337     O      0.819230000000     0.174960000000     0.476170000000    -0.241247   
O338     O      0.843770000000     0.191780000000     0.432600000000    -0.217427   
O339     O      0.675020000000     0.303950000000     0.464750000000    -0.310814   
O340     O      0.638790000000     0.290790000000     0.429220000000    -0.220153   
O341     O      0.682250000000     0.311140000000     0.029720000000    -0.30812    
O342     O      0.692690000000     0.349230000000     0.064220000000    -0.230377   
O343     O      0.818810000000     0.172360000000     0.506440000000    -0.239491   
O344     O      0.807880000000     0.142850000000     0.048770000000    -0.211545   
O345     O      0.674650000000     0.041520000000     0.386400000000    -0.333973   
O346     O      0.713150000000     0.049640000000     0.421110000000    -0.230331   
O347     O      0.727320000000     0.061250000000     0.061700000000    -0.321456   
O348     O      0.691000000000     0.056820000000     0.099310000000    -0.227799   
O349     O      0.040250000000     0.301430000000     0.422500000000    -0.311976   
O350     O      0.575080000000     0.271230000000     0.397340000000    -0.220667   
O351     O      0.927270000000     0.225300000000     0.065430000000    -0.325221   
O352     O      0.430260000000     0.188920000000     0.103120000000    -0.227439   
O353     O      0.679620000000     0.465800000000     0.177740000000    -0.323862   
O354     O      0.641680000000     0.429670000000     0.180470000000    -0.230213   
O355     O      0.854190000000     0.058320000000     0.303940000000    -0.326431   
O356     O      0.816930000000     0.021430000000     0.306160000000    -0.222459   
O357     O      0.972300000000     0.308890000000     0.315060000000    -0.325752   
O358     O      0.436990000000     0.347600000000     0.312370000000    -0.231376   
O359     O      0.942390000000     0.059410000000     0.198210000000    -0.314568   
O360     O      0.917070000000     0.093890000000     0.228510000000    -0.225824   
O361     O      0.952220000000     0.497680000000     0.769330000000    -0.440555   
O362     O      0.542240000000     0.990110000000     0.769070000000    -0.444282   
O363     O      0.001080000000     0.038140000000     0.765810000000    -0.427227   
O364     O      0.492960000000     0.448110000000     0.772590000000    -0.43882    
O365     O      0.996870000000     0.444030000000     0.720350000000    -0.449701   
O366     O      0.496810000000     0.034060000000     0.713530000000    -0.421652   
O367     O      0.541860000000     0.487720000000     0.716540000000    -0.443981   
O368     O      0.951530000000     0.988850000000     0.717540000000    -0.441023   
O369     O      0.971390000000     0.195190000000     0.744340000000    -0.442265   
O370     O      0.969060000000     0.285210000000     0.753820000000    -0.427592   
O371     O      0.968290000000     0.243500000000     0.703960000000    -0.441548   
O372     O      0.972130000000     0.235340000000     0.793870000000    -0.439089   
O373     O      0.524250000000     0.241370000000     0.791970000000    -0.440171   
O374     O      0.520790000000     0.243800000000     0.701650000000    -0.444494   
O375     O      0.521210000000     0.286960000000     0.747610000000    -0.443202   
O376     O      0.523820000000     0.196580000000     0.745580000000    -0.441547   
O377     O      0.793420000000     0.467170000000     0.743070000000    -0.444616   
O378     O      0.703250000000     0.462640000000     0.739470000000    -0.430224   
O379     O      0.750870000000     0.467330000000     0.696850000000    -0.441976   
O380     O      0.747400000000     0.462640000000     0.787290000000    -0.43859    
O381     O      0.742840000000     0.014990000000     0.789630000000    -0.438687   
O382     O      0.746380000000     0.019640000000     0.699740000000    -0.437754   
O383     O      0.700370000000     0.015030000000     0.743690000000    -0.440039   
O384     O      0.790540000000     0.019550000000     0.747180000000    -0.425708   
O385     O      0.718190000000     0.449470000000     0.499050000000    -0.441928   
O386     O      0.721440000000     0.039380000000     0.989820000000    -0.431289   
O387     O      0.717990000000     0.490980000000     0.949240000000    -0.431968   
O388     O      0.721570000000     0.999390000000     0.539260000000    -0.434162   
O389     O      0.773480000000     0.491490000000     0.537640000000    -0.441308   
O390     O      0.770530000000     0.991410000000     0.947220000000    -0.439565   
O391     O      0.773800000000     0.037280000000     0.492970000000    -0.43392    
O392     O      0.770160000000     0.447020000000     0.991780000000    -0.449727   
O393     O      0.989260000000     0.218910000000     0.543240000000    -0.43216    
O394     O      0.498200000000     0.216930000000     0.953250000000    -0.440015   
O395     O      0.539480000000     0.216810000000     0.502990000000    -0.439217   
O396     O      0.949570000000     0.219190000000     0.993270000000    -0.44161    
O397     O      0.950720000000     0.271510000000     0.498070000000    -0.43858    
O398     O      0.540890000000     0.268930000000     0.996270000000    -0.44439    
O399     O      0.996210000000     0.269470000000     0.952140000000    -0.427749   
O400     O      0.496790000000     0.270940000000     0.542570000000    -0.441586   
O401     O      0.700040000000     0.246130000000     0.969490000000    -0.430244   
O402     O      0.790070000000     0.241150000000     0.968570000000    -0.435074   
O403     O      0.742600000000     0.198740000000     0.967840000000    -0.441013   
O404     O      0.747260000000     0.288810000000     0.970420000000    -0.440515   
O405     O      0.740020000000     0.287440000000     0.522410000000    -0.428063   
O406     O      0.751700000000     0.197680000000     0.519610000000    -0.433193   
O407     O      0.790570000000     0.248320000000     0.520640000000    -0.438993   
O408     O      0.700700000000     0.237080000000     0.521190000000    -0.436848   
O409     O      0.819230000000     0.174960000000     0.976170000000    -0.246475   
O410     O      0.843770000000     0.191780000000     0.932600000000    -0.218073   
O411     O      0.675020000000     0.303950000000     0.964750000000    -0.312191   
O412     O      0.638790000000     0.290790000000     0.929220000000    -0.220469   
O413     O      0.682250000000     0.311140000000     0.529720000000    -0.310663   
O414     O      0.692690000000     0.349230000000     0.564220000000    -0.231227   
O415     O      0.818810000000     0.172360000000     0.006440000000    -0.233541   
O416     O      0.807880000000     0.142850000000     0.548770000000    -0.212593   
O417     O      0.674650000000     0.041520000000     0.886390000000    -0.333957   
O418     O      0.713150000000     0.049640000000     0.921110000000    -0.230462   
O419     O      0.727320000000     0.061250000000     0.561700000000    -0.322368   
O420     O      0.691000000000     0.056820000000     0.599310000000    -0.228555   
O421     O      0.040250000000     0.301430000000     0.922500000000    -0.312181   
O422     O      0.575080000000     0.271230000000     0.897340000000    -0.220841   
O423     O      0.927270000000     0.225300000000     0.565430000000    -0.326213   
O424     O      0.430260000000     0.188920000000     0.603120000000    -0.22809    
O425     O      0.679620000000     0.465800000000     0.677740000000    -0.323934   
O426     O      0.641680000000     0.429670000000     0.680470000000    -0.230525   
O427     O      0.854190000000     0.058320000000     0.803940000000    -0.326479   
O428     O      0.816930000000     0.021430000000     0.806160000000    -0.22252    
O429     O      0.972300000000     0.308890000000     0.815060000000    -0.325862   
O430     O      0.436990000000     0.347600000000     0.812370000000    -0.231636   
O431     O      0.942390000000     0.059410000000     0.698210000000    -0.314735   
O432     O      0.917070000000     0.093890000000     0.728510000000    -0.225896   
O433     O      0.952220000000     0.997680000000     0.269330000000    -0.441642   
O434     O      0.542240000000     0.490110000000     0.269070000000    -0.443173   
O435     O      0.001080000000     0.538140000000     0.265810000000    -0.430963   
O436     O      0.492960000000     0.948110000000     0.272600000000    -0.43792    
O437     O      0.996870000000     0.944030000000     0.220350000000    -0.448734   
O438     O      0.496810000000     0.534060000000     0.213530000000    -0.425636   
O439     O      0.541860000000     0.987720000000     0.216540000000    -0.444268   
O440     O      0.951530000000     0.488850000000     0.217540000000    -0.440467   
O441     O      0.971390000000     0.695190000000     0.244340000000    -0.442298   
O442     O      0.969060000000     0.785210000000     0.253820000000    -0.427573   
O443     O      0.968290000000     0.743510000000     0.203960000000    -0.441513   
O444     O      0.972130000000     0.735340000000     0.293870000000    -0.439095   
O445     O      0.524250000000     0.741370000000     0.291970000000    -0.440173   
O446     O      0.520790000000     0.743800000000     0.201650000000    -0.44448    
O447     O      0.521210000000     0.786960000000     0.247620000000    -0.443219   
O448     O      0.523820000000     0.696580000000     0.245580000000    -0.441567   
O449     O      0.793420000000     0.967170000000     0.243060000000    -0.44293    
O450     O      0.703250000000     0.962640000000     0.239470000000    -0.4286     
O451     O      0.750870000000     0.967330000000     0.196850000000    -0.440157   
O452     O      0.747400000000     0.962630000000     0.287290000000    -0.436925   
O453     O      0.742840000000     0.514990000000     0.289630000000    -0.443119   
O454     O      0.746380000000     0.519640000000     0.199740000000    -0.442394   
O455     O      0.700370000000     0.515030000000     0.243690000000    -0.444593   
O456     O      0.790540000000     0.519550000000     0.247180000000    -0.430191   
O457     O      0.718190000000     0.949470000000     0.999050000000    -0.442605   
O458     O      0.721440000000     0.539380000000     0.489820000000    -0.434638   
O459     O      0.717990000000     0.990980000000     0.449240000000    -0.433895   
O460     O      0.721570000000     0.499390000000     0.039260000000    -0.428112   
O461     O      0.773480000000     0.991490000000     0.037640000000    -0.436641   
O462     O      0.770530000000     0.491400000000     0.447220000000    -0.439924   
O463     O      0.773800000000     0.537280000000     0.992970000000    -0.439389   
O464     O      0.770160000000     0.947020000000     0.491780000000    -0.448519   
O465     O      0.989260000000     0.718910000000     0.043240000000    -0.426925   
O466     O      0.498200000000     0.716930000000     0.453250000000    -0.441417   
O467     O      0.539480000000     0.716810000000     0.002990000000    -0.428585   
O468     O      0.949570000000     0.719190000000     0.493260000000    -0.442171   
O469     O      0.950720000000     0.771510000000     0.998070000000    -0.439891   
O470     O      0.540890000000     0.768930000000     0.496270000000    -0.445811   
O471     O      0.996210000000     0.769470000000     0.452140000000    -0.428734   
O472     O      0.496790000000     0.770940000000     0.042570000000    -0.436658   
O473     O      0.700040000000     0.746130000000     0.469490000000    -0.4324     
O474     O      0.790070000000     0.741150000000     0.468570000000    -0.437219   
O475     O      0.742600000000     0.698740000000     0.467840000000    -0.443368   
O476     O      0.747260000000     0.788810000000     0.470420000000    -0.442461   
O477     O      0.740020000000     0.787440000000     0.022410000000    -0.422543   
O478     O      0.751700000000     0.697670000000     0.019610000000    -0.427726   
O479     O      0.790570000000     0.748320000000     0.020640000000    -0.433404   
O480     O      0.700700000000     0.737080000000     0.021190000000    -0.431262   
O481     O      0.819230000000     0.674960000000     0.476170000000    -0.241274   
O482     O      0.843770000000     0.691780000000     0.432600000000    -0.21759    
O483     O      0.675020000000     0.803960000000     0.464750000000    -0.310834   
O484     O      0.638790000000     0.790780000000     0.429220000000    -0.220215   
O485     O      0.682250000000     0.811140000000     0.029720000000    -0.308137   
O486     O      0.692690000000     0.849230000000     0.064220000000    -0.230508   
O487     O      0.818810000000     0.672360000000     0.506440000000    -0.239566   
O488     O      0.807880000000     0.642850000000     0.048770000000    -0.211914   
O489     O      0.674650000000     0.541520000000     0.386400000000    -0.334909   
O490     O      0.713150000000     0.549640000000     0.421110000000    -0.23176    
O491     O      0.727320000000     0.561250000000     0.061700000000    -0.322826   
O492     O      0.691000000000     0.556820000000     0.099310000000    -0.229015   
O493     O      0.040250000000     0.801430000000     0.422500000000    -0.312063   
O494     O      0.575080000000     0.771230000000     0.397340000000    -0.220744   
O495     O      0.927270000000     0.725300000000     0.065430000000    -0.325251   
O496     O      0.430260000000     0.688920000000     0.103120000000    -0.227728   
O497     O      0.679620000000     0.965800000000     0.177740000000    -0.324754   
O498     O      0.641680000000     0.929670000000     0.180470000000    -0.230562   
O499     O      0.854190000000     0.558320000000     0.303940000000    -0.32699    
O500     O      0.816930000000     0.521430000000     0.306160000000    -0.224775   
O501     O      0.972300000000     0.808890000000     0.315060000000    -0.325796   
O502     O      0.436990000000     0.847600000000     0.312370000000    -0.231601   
O503     O      0.942390000000     0.559410000000     0.198210000000    -0.315366   
O504     O      0.917070000000     0.593890000000     0.228510000000    -0.226261   
O505     O      0.952220000000     0.997680000000     0.769330000000    -0.441721   
O506     O      0.542240000000     0.490110000000     0.769070000000    -0.443256   
O507     O      0.001080000000     0.538140000000     0.765810000000    -0.431138   
O508     O      0.492960000000     0.948110000000     0.772590000000    -0.438185   
O509     O      0.996870000000     0.944030000000     0.720350000000    -0.448904   
O510     O      0.496810000000     0.534060000000     0.713530000000    -0.42568    
O511     O      0.541860000000     0.987720000000     0.716540000000    -0.444396   
O512     O      0.951530000000     0.488850000000     0.717540000000    -0.440568   
O513     O      0.971390000000     0.695190000000     0.744340000000    -0.442307   
O514     O      0.969060000000     0.785210000000     0.753820000000    -0.427574   
O515     O      0.968290000000     0.743510000000     0.703960000000    -0.441545   
O516     O      0.972130000000     0.735340000000     0.793870000000    -0.439099   
O517     O      0.524250000000     0.741370000000     0.791970000000    -0.440195   
O518     O      0.520790000000     0.743800000000     0.701650000000    -0.444521   
O519     O      0.521210000000     0.786960000000     0.747610000000    -0.443211   
O520     O      0.523820000000     0.696580000000     0.745580000000    -0.441598   
O521     O      0.793420000000     0.967170000000     0.743070000000    -0.442964   
O522     O      0.703250000000     0.962640000000     0.739470000000    -0.428598   
O523     O      0.750870000000     0.967330000000     0.696850000000    -0.440203   
O524     O      0.747400000000     0.962630000000     0.787290000000    -0.436918   
O525     O      0.742840000000     0.514990000000     0.789630000000    -0.443116   
O526     O      0.746380000000     0.519640000000     0.699740000000    -0.442431   
O527     O      0.700370000000     0.515030000000     0.743690000000    -0.44461    
O528     O      0.790540000000     0.519550000000     0.747180000000    -0.430211   
O529     O      0.718190000000     0.949470000000     0.499050000000    -0.441236   
O530     O      0.721440000000     0.539380000000     0.989820000000    -0.435144   
O531     O      0.717990000000     0.990980000000     0.949240000000    -0.43296    
O532     O      0.721570000000     0.499390000000     0.539260000000    -0.433046   
O533     O      0.773480000000     0.991490000000     0.537640000000    -0.441683   
O534     O      0.770530000000     0.491400000000     0.947220000000    -0.439001   
O535     O      0.773800000000     0.537280000000     0.492970000000    -0.438008   
O536     O      0.770160000000     0.947020000000     0.991780000000    -0.448964   
O537     O      0.989260000000     0.718910000000     0.543240000000    -0.432255   
O538     O      0.498200000000     0.716930000000     0.953250000000    -0.440119   
O539     O      0.539480000000     0.716810000000     0.502990000000    -0.439326   
O540     O      0.949570000000     0.719190000000     0.993270000000    -0.441687   
O541     O      0.950720000000     0.771510000000     0.498070000000    -0.438642   
O542     O      0.540890000000     0.768930000000     0.996270000000    -0.444432   
O543     O      0.996210000000     0.769470000000     0.952140000000    -0.427797   
O544     O      0.496790000000     0.770940000000     0.542570000000    -0.441644   
O545     O      0.700040000000     0.746130000000     0.969490000000    -0.430252   
O546     O      0.790070000000     0.741150000000     0.968570000000    -0.435084   
O547     O      0.742600000000     0.698740000000     0.967840000000    -0.441179   
O548     O      0.747260000000     0.788810000000     0.970420000000    -0.440403   
O549     O      0.740020000000     0.787440000000     0.522410000000    -0.428008   
O550     O      0.751700000000     0.697670000000     0.519610000000    -0.433156   
O551     O      0.790570000000     0.748320000000     0.520640000000    -0.438975   
O552     O      0.700700000000     0.737080000000     0.521190000000    -0.436838   
O553     O      0.819230000000     0.674960000000     0.976170000000    -0.246515   
O554     O      0.843770000000     0.691780000000     0.932600000000    -0.218238   
O555     O      0.675020000000     0.803960000000     0.964750000000    -0.312212   
O556     O      0.638790000000     0.790780000000     0.929220000000    -0.220531   
O557     O      0.682250000000     0.811140000000     0.529720000000    -0.310684   
O558     O      0.692690000000     0.849230000000     0.564220000000    -0.231358   
O559     O      0.818810000000     0.672360000000     0.006440000000    -0.2336     
O560     O      0.807880000000     0.642850000000     0.548770000000    -0.212966   
O561     O      0.674650000000     0.541520000000     0.886390000000    -0.334894   
O562     O      0.713150000000     0.549640000000     0.921110000000    -0.231891   
O563     O      0.727320000000     0.561250000000     0.561700000000    -0.323749   
O564     O      0.691000000000     0.556820000000     0.599310000000    -0.229778   
O565     O      0.040250000000     0.801430000000     0.922500000000    -0.312267   
O566     O      0.575080000000     0.771230000000     0.897340000000    -0.220919   
O567     O      0.927270000000     0.725300000000     0.565430000000    -0.326245   
O568     O      0.430260000000     0.688920000000     0.603120000000    -0.228383   
O569     O      0.679620000000     0.965800000000     0.677740000000    -0.324828   
O570     O      0.641680000000     0.929670000000     0.680470000000    -0.230874   
O571     O      0.854190000000     0.558320000000     0.803940000000    -0.327039   
O572     O      0.816930000000     0.521430000000     0.806160000000    -0.22484    
O573     O      0.972300000000     0.808890000000     0.815060000000    -0.325906   
O574     O      0.436990000000     0.847600000000     0.812370000000    -0.231862   
O575     O      0.942390000000     0.559410000000     0.698210000000    -0.315536   
O576     O      0.917070000000     0.593890000000     0.728510000000    -0.226335   


