data_structure

_audit_creation_method RASPA-1.0
_audit_creation_date 2023-6-5
_audit_author_name 'Poobodin Mano'

_cell_length_a    34.8795
_cell_length_b    34.8752
_cell_length_c    41.5509
_cell_angle_alpha 89.9805
_cell_angle_beta  90.0195
_cell_angle_gamma 119.981
_cell_volume      43780.5

_symmetry_cell_setting          triclinic
_symmetry_space_group_name_Hall 'P 1'
_symmetry_space_group_name_H-M  'P 1'
_symmetry_Int_Tables_number     1

_symmetry_equiv_pos_as_xyz 'x,y,z'

loop_
_atom_site_label
_atom_site_type_symbol
_atom_site_fract_x
_atom_site_fract_y
_atom_site_fract_z
_atom_site_charge
C1       C      0.853530000000     0.669670000000     0.248960000000     0.434817   
C2       C      0.811250000000     0.665070000000     0.367160000000     0.468924   
C3       C      0.751390000000     0.629820000000     0.290450000000     0.437472   
C4       C      0.913570000000     0.704920000000     0.325690000000     0.460379   
C5       C      0.145120000000     0.814860000000     0.449980000000     0.467812   
C6       C      0.186550000000     0.853330000000     0.331730000000     0.462474   
C7       C      0.247180000000     0.877300000000     0.408250000000     0.432229   
C8       C      0.084850000000     0.790930000000     0.373510000000     0.438891   
C9       C      0.478140000000     0.997960000000     0.033190000000     0.433745   
C10      C      0.520830000000     0.003500000000     0.415010000000     0.437652   
C11      C      0.580520000000     0.038790000000     0.991850000000     0.462244   
C12      C      0.418420000000     0.962330000000     0.456240000000     0.458358   
C13      C      0.144740000000     0.330840000000     0.200860000000     0.432947   
C14      C      0.186310000000     0.334730000000     0.082550000000     0.436043   
C15      C      0.246810000000     0.370750000000     0.159120000000     0.433958   
C16      C      0.084500000000     0.294930000000     0.124320000000     0.432738   
C17      C      0.853690000000     0.185690000000     0.999020000000     0.433859   
C18      C      0.810860000000     0.148590000000     0.117190000000     0.436067   
C19      C      0.751410000000     0.124610000000     0.040320000000     0.435326   
C20      C      0.913430000000     0.209400000000     0.076030000000     0.457891   
C21      C      0.520420000000     0.518940000000     0.165630000000     0.435284   
C22      C      0.478030000000     0.481730000000     0.283830000000     0.435442   
C23      C      0.418080000000     0.456380000000     0.207010000000     0.459927   
C24      C      0.580200000000     0.544340000000     0.242430000000     0.462053   
C25      C      0.145720000000     0.335330000000     0.332640000000     0.465808   
C26      C      0.183250000000     0.329410000000     0.450740000000     0.468018   
C27      C      0.206180000000     0.293080000000     0.373700000000     0.462235   
C28      C      0.122600000000     0.371520000000     0.409630000000     0.460438   
C29      C      0.333090000000     0.147080000000     0.366170000000     0.433877   
C30      C      0.327540000000     0.184080000000     0.247940000000     0.435987   
C31      C      0.291720000000     0.207960000000     0.324710000000     0.434615   
C32      C      0.368960000000     0.123050000000     0.289460000000     0.433312   
C33      C      0.000500000000     0.480900000000     0.034520000000     0.461001   
C34      C      0.996900000000     0.518990000000     0.416290000000     0.437496   
C35      C      0.960940000000     0.543120000000     0.992820000000     0.438414   
C36      C      0.036960000000     0.456920000000     0.457900000000     0.431987   
C37      C      0.664810000000     0.853520000000     0.082340000000     0.464784   
C38      C      0.668580000000     0.815220000000     0.200530000000     0.468714   
C39      C      0.705070000000     0.791890000000     0.123840000000     0.464882   
C40      C      0.628160000000     0.877220000000     0.159010000000     0.434632   
C41      C      0.851660000000     0.665040000000     0.117170000000     0.467295   
C42      C      0.814170000000     0.669920000000     0.998940000000     0.436829   
C43      C      0.789960000000     0.705680000000     0.075630000000     0.434614   
C44      C      0.876080000000     0.629560000000     0.040530000000     0.464008   
C45      C      0.518460000000     0.998870000000     0.283260000000     0.46967    
C46      C      0.480000000000     0.002120000000     0.165040000000     0.462693   
C47      C      0.456090000000     0.038800000000     0.241730000000     0.457982   
C48      C      0.542560000000     0.962910000000     0.206770000000     0.466461   
C49      C      0.329190000000     0.145870000000     0.998010000000     0.462729   
C50      C      0.332490000000     0.187610000000     0.116200000000     0.469378   
C51      C      0.368850000000     0.247790000000     0.039700000000     0.467249   
C52      C      0.292340000000     0.085430000000     0.074710000000     0.458207   
C53      C      0.519160000000     0.520940000000     0.033800000000     0.463488   
C54      C      0.480790000000     0.479260000000     0.415600000000     0.46656    
C55      C      0.456200000000     0.419210000000     0.992160000000     0.43896    
C56      C      0.543920000000     0.581410000000     0.457160000000     0.459526   
C57      C      0.184670000000     0.854930000000     0.199910000000     0.43342    
C58      C      0.147670000000     0.811990000000     0.081740000000     0.435823   
C59      C      0.124110000000     0.752360000000     0.158780000000     0.459424   
C60      C      0.208290000000     0.914390000000     0.123040000000     0.433174   
C61      C      0.000820000000     0.521560000000     0.284480000000     0.464051   
C62      C      0.996320000000     0.479300000000     0.166320000000     0.434466   
C63      C      0.959610000000     0.419440000000     0.243080000000     0.462241   
C64      C      0.037680000000     0.581650000000     0.207690000000     0.43324    
C65      C      0.811840000000     0.146290000000     0.249020000000     0.466362   
C66      C      0.850250000000     0.187840000000     0.367260000000     0.466487   
C67      C      0.874020000000     0.248030000000     0.290790000000     0.438605   
C68      C      0.787670000000     0.085660000000     0.325590000000     0.461608   
C69      C      0.668640000000     0.854750000000     0.450480000000     0.435955   
C70      C      0.663670000000     0.812400000000     0.332270000000     0.436186   
C71      C      0.628780000000     0.752530000000     0.409070000000     0.43364    
C72      C      0.703440000000     0.914530000000     0.373680000000     0.435003   
C73      C      0.768240000000     0.979200000000     0.356120000000     0.0265173  
C74      C      0.700020000000     0.977850000000     0.355690000000    -0.06788    
C75      C      0.789030000000     0.021730000000     0.343230000000     0.0519503  
C76      C      0.721020000000     0.021020000000     0.343300000000     0.380017   
C77      C      0.940150000000     0.311940000000     0.272620000000     0.0275874  
C78      C      0.872890000000     0.312470000000     0.273980000000    -0.0649986  
C79      C      0.961550000000     0.355180000000     0.260410000000     0.0521153  
C80      C      0.893850000000     0.355130000000     0.261260000000     0.385558   
C81      C      0.035980000000     0.645610000000     0.189100000000     0.0266731  
C82      C      0.103470000000     0.645530000000     0.190450000000    -0.0735324  
C83      C      0.057940000000     0.688620000000     0.176530000000     0.0526184  
C84      C      0.125310000000     0.688010000000     0.177370000000     0.3762     
C85      C      0.563880000000     0.687960000000     0.426520000000     0.0235756  
C86      C      0.631990000000     0.689080000000     0.427090000000    -0.0696404  
C87      C      0.542940000000     0.645450000000     0.439390000000     0.0489181  
C88      C      0.610810000000     0.645870000000     0.439460000000     0.376481   
C89      C      0.274100000000     0.978710000000     0.104980000000     0.0242376  
C90      C      0.206220000000     0.978050000000     0.105470000000    -0.0727754  
C91      C      0.295110000000     0.021840000000     0.092600000000     0.0503513  
C92      C      0.226810000000     0.020600000000     0.092570000000     0.377384   
C93      C      0.456050000000     0.354200000000     0.009290000000     0.0346524  
C94      C      0.389410000000     0.355980000000     0.010070000000    -0.0662965  
C95      C      0.434210000000     0.311580000000     0.022020000000     0.0609601  
C96      C      0.367120000000     0.312720000000     0.022310000000     0.381094   
C97      C      0.626250000000     0.787450000000     0.282240000000     0.0294645  
C98      C      0.704190000000     0.822610000000     0.284110000000    -0.0698359  
C99      C      0.627740000000     0.786820000000     0.248680000000     0.0578276  
C100     C      0.705870000000     0.824830000000     0.250540000000     0.38212    
C101     C      0.628580000000     0.844210000000     0.998930000000     0.0303468  
C102     C      0.706600000000     0.880930000000     0.000140000000    -0.066885   
C103     C      0.627590000000     0.842510000000     0.032510000000     0.0558692  
C104     C      0.705760000000     0.882040000000     0.033730000000     0.380382   
C105     C      0.723930000000     0.703660000000     0.093870000000     0.0271737  
C106     C      0.791420000000     0.771220000000     0.092810000000    -0.071489   
C107     C      0.702700000000     0.725610000000     0.106220000000     0.0549972  
C108     C      0.770650000000     0.792990000000     0.105670000000     0.385046   
C109     C      0.562810000000     0.876450000000     0.176100000000     0.0273803  
C110     C      0.630840000000     0.943490000000     0.177140000000    -0.067796   
C111     C      0.541650000000     0.897900000000     0.188910000000     0.0570814  
C112     C      0.609510000000     0.965340000000     0.189450000000     0.381318   
C113     C      0.037190000000     0.548290000000     0.367890000000     0.0277385  
C114     C      0.959140000000     0.507820000000     0.366640000000    -0.0646789  
C115     C      0.038180000000     0.547520000000     0.334300000000     0.0553829  
C116     C      0.960010000000     0.509750000000     0.333060000000     0.386038   
C117     C      0.036540000000     0.489790000000     0.117960000000     0.0226922  
C118     C      0.958530000000     0.453310000000     0.116630000000    -0.0713665  
C119     C      0.037630000000     0.491670000000     0.084380000000     0.0505245  
C120     C      0.959440000000     0.452330000000     0.083050000000     0.377379   
C121     C      0.895820000000     0.542750000000     0.009970000000     0.0323482  
C122     C      0.964000000000     0.609630000000     0.010810000000    -0.0671781  
C123     C      0.874860000000     0.564380000000     0.022740000000     0.0573467  
C124     C      0.942860000000     0.631680000000     0.023110000000     0.379468   
C125     C      0.293020000000     0.117920000000     0.414660000000     0.0258374  
C126     C      0.371030000000     0.159490000000     0.415880000000    -0.0708286  
C127     C      0.292000000000     0.119090000000     0.448230000000     0.0540888  
C128     C      0.370180000000     0.157970000000     0.449480000000     0.377081   
C129     C      0.290000000000     0.171420000000     0.197930000000     0.0289344  
C130     C      0.367840000000     0.215320000000     0.199850000000    -0.0662518  
C131     C      0.291460000000     0.173980000000     0.164380000000     0.0554895  
C132     C      0.369550000000     0.215230000000     0.166270000000     0.385011   
C133     C      0.367460000000     0.057100000000     0.271620000000     0.0243482  
C134     C      0.434670000000     0.124940000000     0.272190000000    -0.0723977  
C135     C      0.389630000000     0.036020000000     0.259400000000     0.0504407  
C136     C      0.456660000000     0.104310000000     0.259470000000     0.378193   
C137     C      0.034700000000     0.390900000000     0.439440000000     0.0236759  
C138     C      0.102500000000     0.458110000000     0.441020000000    -0.0747651  
C139     C      0.056500000000     0.369560000000     0.427070000000     0.0517197  
C140     C      0.124160000000     0.437210000000     0.428140000000     0.377745   
C141     C      0.293830000000     0.273880000000     0.343150000000     0.0270733  
C142     C      0.226190000000     0.206460000000     0.342130000000    -0.0722259  
C143     C      0.272100000000     0.295140000000     0.355750000000     0.054084   
C144     C      0.204590000000     0.227320000000     0.355220000000     0.380358   
C145     C      0.453370000000     0.494430000000     0.333900000000     0.0263535  
C146     C      0.488020000000     0.451160000000     0.331970000000    -0.0713901  
C147     C      0.452740000000     0.492250000000     0.367460000000     0.0521516  
C148     C      0.490200000000     0.451560000000     0.365540000000     0.381397   
C149     C      0.510080000000     0.548440000000     0.117070000000     0.0245668  
C150     C      0.546630000000     0.506940000000     0.116080000000    -0.0691285  
C151     C      0.508390000000     0.547580000000     0.083500000000     0.0517996  
C152     C      0.547690000000     0.508670000000     0.082500000000     0.379198   
C153     C      0.877930000000     0.172690000000     0.448880000000     0.0253773  
C154     C      0.843580000000     0.216230000000     0.450920000000    -0.0727902  
C155     C      0.878390000000     0.174790000000     0.415320000000     0.0524564  
C156     C      0.841130000000     0.215660000000     0.417350000000     0.380213   
C157     C      0.820790000000     0.118770000000     0.165730000000     0.0289043  
C158     C      0.784780000000     0.160770000000     0.166740000000    -0.0658095  
C159     C      0.822450000000     0.119570000000     0.199310000000     0.0582791  
C160     C      0.783590000000     0.158920000000     0.200340000000     0.386096   
C161     C      0.119000000000     0.293400000000     0.250790000000     0.0248604  
C162     C      0.154710000000     0.371380000000     0.249010000000    -0.0743448  
C163     C      0.117800000000     0.294780000000     0.284340000000     0.0502207  
C164     C      0.156400000000     0.372930000000     0.282610000000     0.376795   
C165     C      0.211370000000     0.371780000000     0.032430000000     0.0285944  
C166     C      0.175180000000     0.293790000000     0.034450000000    -0.065755   
C167     C      0.211920000000     0.370150000000     0.998880000000     0.0536992  
C168     C      0.172840000000     0.292010000000     0.000850000000     0.384059   
C169     C      0.020660000000     0.297280000000     0.106060000000     0.0236305  
C170     C      0.020180000000     0.229510000000     0.107320000000    -0.0737621  
C171     C      0.977490000000     0.275520000000     0.093690000000     0.0500287  
C172     C      0.977630000000     0.207910000000     0.094440000000     0.378131   
C173     C      0.311410000000     0.435970000000     0.176200000000     0.0244671  
C174     C      0.310460000000     0.367950000000     0.177160000000    -0.0691444  
C175     C      0.353970000000     0.457120000000     0.189010000000     0.0496948  
C176     C      0.353690000000     0.389310000000     0.189480000000     0.376835   
C177     C      0.545630000000     0.041110000000     0.365030000000     0.0325412  
C178     C      0.511270000000     0.963220000000     0.366820000000    -0.0677855  
C179     C      0.546390000000     0.039720000000     0.331460000000     0.0609406  
C180     C      0.509180000000     0.961600000000     0.333240000000     0.384197   
C181     C      0.488650000000     0.038070000000     0.081610000000     0.0254468  
C182     C      0.452460000000     0.960060000000     0.082920000000    -0.0705812  
C183     C      0.490570000000     0.039160000000     0.115180000000     0.053456   
C184     C      0.451530000000     0.960970000000     0.116510000000     0.377108   
C185     C      0.686980000000     0.125400000000     0.022780000000     0.0277672  
C186     C      0.687970000000     0.058340000000     0.022150000000    -0.0688629  
C187     C      0.644470000000     0.103910000000     0.009800000000     0.0532629  
C188     C      0.644930000000     0.036470000000     0.009620000000     0.379367   
C189     C      0.214350000000     0.844790000000     0.248430000000     0.024038   
C190     C      0.172260000000     0.880720000000     0.249500000000    -0.0724883  
C191     C      0.213400000000     0.842920000000     0.282010000000     0.0524744  
C192     C      0.173990000000     0.881720000000     0.283100000000     0.375299   
C193     C      0.160720000000     0.787680000000     0.031640000000     0.0275567  
C194     C      0.116840000000     0.821660000000     0.033640000000    -0.0667572  
C195     C      0.158480000000     0.787040000000     0.998070000000     0.0542316  
C196     C      0.117270000000     0.823940000000     0.000060000000     0.383446   
C197     C      0.311110000000     0.943360000000     0.426590000000     0.0245836  
C198     C      0.311550000000     0.876050000000     0.424940000000    -0.0740462  
C199     C      0.354340000000     0.964630000000     0.438870000000     0.0496474  
C200     C      0.354130000000     0.896850000000     0.437730000000     0.377176   
C201     C      0.826570000000     0.707330000000     0.448930000000     0.0301293  
C202     C      0.783530000000     0.629410000000     0.450800000000    -0.0645227  
C203     C      0.824230000000     0.705870000000     0.415370000000     0.056303   
C204     C      0.783830000000     0.627740000000     0.417210000000     0.386708   
C205     C      0.878790000000     0.707110000000     0.198980000000     0.0266818  
C206     C      0.843440000000     0.629160000000     0.200790000000    -0.0712277  
C207     C      0.879670000000     0.705700000000     0.165430000000     0.053101   
C208     C      0.841480000000     0.627550000000     0.167190000000     0.380567   
C209     C      0.686790000000     0.564690000000     0.273310000000     0.0311925  
C210     C      0.687860000000     0.632770000000     0.272260000000    -0.0670451  
C211     C      0.644250000000     0.543580000000     0.260470000000     0.0549544  
C212     C      0.644640000000     0.611430000000     0.259900000000     0.377963   
C213     C      0.020140000000     0.791420000000     0.356440000000     0.0306719  
C214     C      0.021330000000     0.724470000000     0.355480000000    -0.0677872  
C215     C      0.977560000000     0.769900000000     0.343630000000     0.0532084  
C216     C      0.978120000000     0.702520000000     0.343170000000     0.377854   
C217     C      0.853530000000     0.669670000000     0.748960000000     0.434721   
C218     C      0.811250000000     0.665070000000     0.867160000000     0.468838   
C219     C      0.751390000000     0.629820000000     0.790450000000     0.437423   
C220     C      0.913570000000     0.704920000000     0.825690000000     0.460444   
C221     C      0.145120000000     0.814860000000     0.949980000000     0.468075   
C222     C      0.186550000000     0.853330000000     0.831730000000     0.462442   
C223     C      0.247180000000     0.877300000000     0.908250000000     0.432265   
C224     C      0.084850000000     0.790930000000     0.873510000000     0.438925   
C225     C      0.478140000000     0.997960000000     0.533190000000     0.43379    
C226     C      0.520830000000     0.003500000000     0.915010000000     0.437637   
C227     C      0.580530000000     0.038790000000     0.491850000000     0.462306   
C228     C      0.418420000000     0.962330000000     0.956240000000     0.458325   
C229     C      0.144750000000     0.330850000000     0.700860000000     0.432982   
C230     C      0.186310000000     0.334730000000     0.582550000000     0.436046   
C231     C      0.246810000000     0.370750000000     0.659120000000     0.433958   
C232     C      0.084500000000     0.294930000000     0.624320000000     0.43274    
C233     C      0.853690000000     0.185690000000     0.499020000000     0.434107   
C234     C      0.810860000000     0.148590000000     0.617190000000     0.43606    
C235     C      0.751410000000     0.124610000000     0.540320000000     0.435311   
C236     C      0.913430000000     0.209400000000     0.576030000000     0.457879   
C237     C      0.520420000000     0.518940000000     0.665630000000     0.435324   
C238     C      0.478020000000     0.481720000000     0.783830000000     0.435529   
C239     C      0.418080000000     0.456380000000     0.707000000000     0.460038   
C240     C      0.580200000000     0.544340000000     0.742420000000     0.462072   
C241     C      0.145720000000     0.335330000000     0.832640000000     0.465774   
C242     C      0.183250000000     0.329410000000     0.950740000000     0.468176   
C243     C      0.206180000000     0.293080000000     0.873700000000     0.462427   
C244     C      0.122600000000     0.371520000000     0.909620000000     0.460555   
C245     C      0.333090000000     0.147080000000     0.866170000000     0.433943   
C246     C      0.327540000000     0.184080000000     0.747940000000     0.435879   
C247     C      0.291720000000     0.207960000000     0.824720000000     0.434581   
C248     C      0.368960000000     0.123050000000     0.789460000000     0.433226   
C249     C      0.000500000000     0.480900000000     0.534520000000     0.460989   
C250     C      0.996900000000     0.518990000000     0.916290000000     0.437483   
C251     C      0.960930000000     0.543120000000     0.492820000000     0.438391   
C252     C      0.036960000000     0.456920000000     0.957900000000     0.432015   
C253     C      0.664810000000     0.853520000000     0.582340000000     0.464777   
C254     C      0.668580000000     0.815220000000     0.700530000000     0.468712   
C255     C      0.705070000000     0.791890000000     0.623840000000     0.46497    
C256     C      0.628160000000     0.877220000000     0.659010000000     0.434704   
C257     C      0.851660000000     0.665040000000     0.617170000000     0.467287   
C258     C      0.814170000000     0.669920000000     0.498940000000     0.437113   
C259     C      0.789960000000     0.705680000000     0.575640000000     0.434583   
C260     C      0.876080000000     0.629560000000     0.540530000000     0.464004   
C261     C      0.518460000000     0.998870000000     0.783260000000     0.469667   
C262     C      0.480000000000     0.002120000000     0.665040000000     0.46269    
C263     C      0.456090000000     0.038800000000     0.741730000000     0.458187   
C264     C      0.542560000000     0.962910000000     0.706770000000     0.466457   
C265     C      0.329190000000     0.145870000000     0.498010000000     0.462894   
C266     C      0.332490000000     0.187610000000     0.616210000000     0.469322   
C267     C      0.368850000000     0.247790000000     0.539700000000     0.467245   
C268     C      0.292340000000     0.085430000000     0.574710000000     0.458204   
C269     C      0.519160000000     0.520940000000     0.533810000000     0.463301   
C270     C      0.480790000000     0.479270000000     0.915600000000     0.466574   
C271     C      0.456200000000     0.419200000000     0.492160000000     0.43896    
C272     C      0.543920000000     0.581410000000     0.957160000000     0.459523   
C273     C      0.184670000000     0.854930000000     0.699910000000     0.433537   
C274     C      0.147670000000     0.811990000000     0.581740000000     0.435822   
C275     C      0.124110000000     0.752360000000     0.658780000000     0.459429   
C276     C      0.208290000000     0.914390000000     0.623040000000     0.433177   
C277     C      0.000820000000     0.521560000000     0.784480000000     0.464054   
C278     C      0.996320000000     0.479300000000     0.666320000000     0.434455   
C279     C      0.959610000000     0.419440000000     0.743070000000     0.462257   
C280     C      0.037680000000     0.581650000000     0.707690000000     0.433238   
C281     C      0.811840000000     0.146290000000     0.749020000000     0.4663     
C282     C      0.850250000000     0.187840000000     0.867260000000     0.466686   
C283     C      0.874020000000     0.248030000000     0.790790000000     0.438396   
C284     C      0.787670000000     0.085660000000     0.825590000000     0.461803   
C285     C      0.668640000000     0.854750000000     0.950480000000     0.435942   
C286     C      0.663660000000     0.812400000000     0.832270000000     0.436197   
C287     C      0.628780000000     0.752530000000     0.909070000000     0.433655   
C288     C      0.703440000000     0.914530000000     0.873680000000     0.434966   
C289     C      0.768240000000     0.979200000000     0.856120000000     0.0265049  
C290     C      0.700020000000     0.977850000000     0.855690000000    -0.0678905  
C291     C      0.789030000000     0.021730000000     0.843230000000     0.0519675  
C292     C      0.721020000000     0.021020000000     0.843300000000     0.380026   
C293     C      0.940150000000     0.311940000000     0.772620000000     0.0276423  
C294     C      0.872890000000     0.312470000000     0.773980000000    -0.0652057  
C295     C      0.961550000000     0.355180000000     0.760410000000     0.0520751  
C296     C      0.893850000000     0.355120000000     0.761270000000     0.385476   
C297     C      0.035980000000     0.645610000000     0.689100000000     0.0266728  
C298     C      0.103470000000     0.645530000000     0.690450000000    -0.073533   
C299     C      0.057940000000     0.688620000000     0.676530000000     0.0526192  
C300     C      0.125310000000     0.688010000000     0.677370000000     0.3762     
C301     C      0.563880000000     0.687960000000     0.926520000000     0.0235752  
C302     C      0.631990000000     0.689080000000     0.927090000000    -0.0696432  
C303     C      0.542940000000     0.645450000000     0.939390000000     0.0489122  
C304     C      0.610810000000     0.645870000000     0.939460000000     0.376474   
C305     C      0.274100000000     0.978710000000     0.604990000000     0.0242673  
C306     C      0.206220000000     0.978050000000     0.605470000000    -0.0727753  
C307     C      0.295110000000     0.021840000000     0.592600000000     0.0503375  
C308     C      0.226810000000     0.020600000000     0.592570000000     0.377379   
C309     C      0.456050000000     0.354200000000     0.509290000000     0.03459    
C310     C      0.389400000000     0.355970000000     0.510070000000    -0.0663648  
C311     C      0.434210000000     0.311580000000     0.522020000000     0.0609572  
C312     C      0.367120000000     0.312720000000     0.522310000000     0.381135   
C313     C      0.626250000000     0.787450000000     0.782240000000     0.0294615  
C314     C      0.704180000000     0.822610000000     0.784120000000    -0.0695838  
C315     C      0.627740000000     0.786820000000     0.748680000000     0.0578181  
C316     C      0.705870000000     0.824830000000     0.750540000000     0.381991   
C317     C      0.628580000000     0.844210000000     0.498930000000     0.0304756  
C318     C      0.706600000000     0.880930000000     0.500150000000    -0.0670607  
C319     C      0.627580000000     0.842510000000     0.532510000000     0.0557343  
C320     C      0.705760000000     0.882040000000     0.533740000000     0.38057    
C321     C      0.723930000000     0.703660000000     0.593870000000     0.0271894  
C322     C      0.791420000000     0.771220000000     0.592810000000    -0.0715     
C323     C      0.702700000000     0.725610000000     0.606220000000     0.0549481  
C324     C      0.770650000000     0.792990000000     0.605670000000     0.385064   
C325     C      0.562810000000     0.876450000000     0.676100000000     0.0273305  
C326     C      0.630840000000     0.943490000000     0.677140000000    -0.0677539  
C327     C      0.541650000000     0.897900000000     0.688910000000     0.0570973  
C328     C      0.609510000000     0.965340000000     0.689450000000     0.381303   
C329     C      0.037190000000     0.548290000000     0.867880000000     0.027706   
C330     C      0.959140000000     0.507820000000     0.866640000000    -0.0646824  
C331     C      0.038180000000     0.547510000000     0.834300000000     0.0553936  
C332     C      0.960010000000     0.509750000000     0.833060000000     0.386043   
C333     C      0.036540000000     0.489790000000     0.617960000000     0.0226877  
C334     C      0.958530000000     0.453310000000     0.616630000000    -0.0714338  
C335     C      0.037630000000     0.491670000000     0.584380000000     0.0505222  
C336     C      0.959440000000     0.452330000000     0.583050000000     0.377403   
C337     C      0.895820000000     0.542750000000     0.509970000000     0.0323422  
C338     C      0.964000000000     0.609630000000     0.510810000000    -0.067169   
C339     C      0.874860000000     0.564380000000     0.522740000000     0.0573394  
C340     C      0.942860000000     0.631680000000     0.523110000000     0.379455   
C341     C      0.293020000000     0.117920000000     0.914670000000     0.0258035  
C342     C      0.371030000000     0.159490000000     0.915890000000    -0.0710554  
C343     C      0.292000000000     0.119090000000     0.948230000000     0.0540876  
C344     C      0.370190000000     0.157970000000     0.949480000000     0.377379   
C345     C      0.290000000000     0.171420000000     0.697930000000     0.0289236  
C346     C      0.367840000000     0.215320000000     0.699850000000    -0.0662582  
C347     C      0.291460000000     0.173980000000     0.664380000000     0.0555095  
C348     C      0.369550000000     0.215230000000     0.666270000000     0.385026   
C349     C      0.367460000000     0.057100000000     0.771620000000     0.0242941  
C350     C      0.434670000000     0.124940000000     0.772190000000    -0.0723766  
C351     C      0.389630000000     0.036020000000     0.759410000000     0.0504453  
C352     C      0.456660000000     0.104310000000     0.759470000000     0.378177   
C353     C      0.034700000000     0.390900000000     0.939440000000     0.0236715  
C354     C      0.102500000000     0.458110000000     0.941020000000    -0.0747664  
C355     C      0.056500000000     0.369560000000     0.927070000000     0.0517169  
C356     C      0.124160000000     0.437210000000     0.928140000000     0.377742   
C357     C      0.293830000000     0.273880000000     0.843160000000     0.0270659  
C358     C      0.226190000000     0.206460000000     0.842130000000    -0.0722212  
C359     C      0.272100000000     0.295140000000     0.855750000000     0.0540774  
C360     C      0.204590000000     0.227320000000     0.855220000000     0.380343   
C361     C      0.453370000000     0.494430000000     0.833900000000     0.0263387  
C362     C      0.488020000000     0.451160000000     0.831970000000    -0.0713379  
C363     C      0.452740000000     0.492250000000     0.867460000000     0.0521478  
C364     C      0.490200000000     0.451570000000     0.865540000000     0.381311   
C365     C      0.510080000000     0.548440000000     0.617070000000     0.0245616  
C366     C      0.546630000000     0.506940000000     0.616090000000    -0.068877   
C367     C      0.508390000000     0.547580000000     0.583500000000     0.0518106  
C368     C      0.547690000000     0.508680000000     0.582490000000     0.379116   
C369     C      0.877930000000     0.172690000000     0.948880000000     0.0253547  
C370     C      0.843580000000     0.216230000000     0.950920000000    -0.0728186  
C371     C      0.878390000000     0.174790000000     0.915320000000     0.0524801  
C372     C      0.841130000000     0.215660000000     0.917350000000     0.380227   
C373     C      0.820790000000     0.118770000000     0.665730000000     0.0289053  
C374     C      0.784780000000     0.160770000000     0.666740000000    -0.0657647  
C375     C      0.822450000000     0.119570000000     0.699310000000     0.0582772  
C376     C      0.783600000000     0.158920000000     0.700340000000     0.38601    
C377     C      0.119000000000     0.293400000000     0.750790000000     0.0249388  
C378     C      0.154710000000     0.371380000000     0.749010000000    -0.0743963  
C379     C      0.117800000000     0.294780000000     0.784340000000     0.0501874  
C380     C      0.156400000000     0.372930000000     0.782610000000     0.376812   
C381     C      0.211370000000     0.371780000000     0.532430000000     0.0285274  
C382     C      0.175180000000     0.293790000000     0.534450000000    -0.0656466  
C383     C      0.211920000000     0.370150000000     0.498880000000     0.0537588  
C384     C      0.172840000000     0.292010000000     0.500850000000     0.383807   
C385     C      0.020660000000     0.297280000000     0.606060000000     0.0236278  
C386     C      0.020180000000     0.229510000000     0.607320000000    -0.073764   
C387     C      0.977490000000     0.275520000000     0.593690000000     0.0500229  
C388     C      0.977630000000     0.207910000000     0.594440000000     0.378126   
C389     C      0.311410000000     0.435970000000     0.676200000000     0.0244684  
C390     C      0.310460000000     0.367950000000     0.677160000000    -0.069147   
C391     C      0.353970000000     0.457120000000     0.689010000000     0.0496827  
C392     C      0.353690000000     0.389310000000     0.689480000000     0.376832   
C393     C      0.545620000000     0.041110000000     0.865030000000     0.0325141  
C394     C      0.511270000000     0.963220000000     0.866820000000    -0.0678656  
C395     C      0.546390000000     0.039720000000     0.831460000000     0.0609566  
C396     C      0.509180000000     0.961600000000     0.833240000000     0.38432    
C397     C      0.488650000000     0.038070000000     0.581610000000     0.0254384  
C398     C      0.452460000000     0.960060000000     0.582920000000    -0.0706556  
C399     C      0.490580000000     0.039160000000     0.615180000000     0.053469   
C400     C      0.451540000000     0.960970000000     0.616510000000     0.377144   
C401     C      0.686980000000     0.125400000000     0.522780000000     0.0277555  
C402     C      0.687970000000     0.058340000000     0.522150000000    -0.0689429  
C403     C      0.644470000000     0.103910000000     0.509800000000     0.0532611  
C404     C      0.644940000000     0.036470000000     0.509620000000     0.379345   
C405     C      0.214350000000     0.844790000000     0.748440000000     0.0240127  
C406     C      0.172260000000     0.880720000000     0.749500000000    -0.0724828  
C407     C      0.213400000000     0.842920000000     0.782010000000     0.052479   
C408     C      0.173990000000     0.881720000000     0.783100000000     0.375292   
C409     C      0.160720000000     0.787680000000     0.531640000000     0.0274977  
C410     C      0.116830000000     0.821660000000     0.533640000000    -0.0668616  
C411     C      0.158480000000     0.787040000000     0.498070000000     0.0543077  
C412     C      0.117260000000     0.823940000000     0.500060000000     0.383451   
C413     C      0.311110000000     0.943360000000     0.926590000000     0.0245781  
C414     C      0.311550000000     0.876050000000     0.924940000000    -0.0740924  
C415     C      0.354340000000     0.964630000000     0.938870000000     0.0496466  
C416     C      0.354130000000     0.896850000000     0.937720000000     0.377165   
C417     C      0.826570000000     0.707330000000     0.948930000000     0.0301325  
C418     C      0.783530000000     0.629410000000     0.950800000000    -0.0645663  
C419     C      0.824230000000     0.705870000000     0.915380000000     0.0562108  
C420     C      0.783840000000     0.627740000000     0.917210000000     0.386778   
C421     C      0.878790000000     0.707110000000     0.698980000000     0.0266723  
C422     C      0.843440000000     0.629160000000     0.700790000000    -0.0712301  
C423     C      0.879670000000     0.705700000000     0.665430000000     0.0531038  
C424     C      0.841480000000     0.627560000000     0.667190000000     0.380486   
C425     C      0.686790000000     0.564690000000     0.773310000000     0.0311885  
C426     C      0.687860000000     0.632770000000     0.772260000000    -0.0671148  
C427     C      0.644250000000     0.543580000000     0.760470000000     0.0549537  
C428     C      0.644640000000     0.611430000000     0.759900000000     0.377985   
C429     C      0.020140000000     0.791420000000     0.856440000000     0.0306625  
C430     C      0.021320000000     0.724460000000     0.855480000000    -0.0678944  
C431     C      0.977560000000     0.769900000000     0.843630000000     0.0532291  
C432     C      0.978110000000     0.702510000000     0.843170000000     0.378079   
F1       F      0.695780000000     0.039880000000     0.337330000000    -0.424845   
F2       F      0.868720000000     0.374420000000     0.256540000000    -0.412874   
F3       F      0.169630000000     0.706950000000     0.172430000000    -0.435591   
F4       F      0.635870000000     0.626830000000     0.445480000000    -0.427513   
F5       F      0.201190000000     0.039220000000     0.087270000000    -0.430532   
F6       F      0.323090000000     0.294050000000     0.028380000000    -0.428329   
F7       F      0.746110000000     0.843750000000     0.235940000000    -0.429159   
F8       F      0.745080000000     0.900810000000     0.049640000000    -0.421826   
F9       F      0.796000000000     0.837330000000     0.110620000000    -0.415942   
F10      F      0.634540000000     0.009360000000     0.195700000000    -0.424098   
F11      F      0.920680000000     0.489630000000     0.317160000000    -0.414968   
F12      F      0.920170000000     0.433730000000     0.067110000000    -0.433542   
F13      F      0.968030000000     0.675720000000     0.029240000000    -0.430414   
F14      F      0.409490000000     0.178840000000     0.465390000000    -0.434599   
F15      F      0.409760000000     0.237300000000     0.151680000000    -0.425939   
F16      F      0.500920000000     0.129910000000     0.254330000000    -0.427515   
F17      F      0.168570000000     0.462320000000     0.423430000000    -0.433287   
F18      F      0.160280000000     0.202100000000     0.360340000000    -0.429288   
F19      F      0.508810000000     0.429900000000     0.380100000000    -0.428569   
F20      F      0.566380000000     0.487950000000     0.066720000000    -0.429276   
F21      F      0.822490000000     0.237330000000     0.402840000000    -0.429375   
F22      F      0.765150000000     0.179850000000     0.216140000000    -0.423138   
F23      F      0.175420000000     0.413130000000     0.297280000000    -0.434161   
F24      F      0.153270000000     0.251710000000     0.986320000000    -0.423936   
F25      F      0.958440000000     0.163530000000     0.089600000000    -0.429699   
F26      F      0.372790000000     0.364360000000     0.195680000000    -0.42952    
F27      F      0.490730000000     0.921400000000     0.318590000000    -0.431603   
F28      F      0.433120000000     0.921710000000     0.132460000000    -0.436345   
F29      F      0.626020000000     0.992420000000     0.003500000000    -0.432491   
F30      F      0.152950000000     0.900030000000     0.298940000000    -0.437946   
F31      F      0.095360000000     0.842320000000     0.985530000000    -0.429428   
F32      F      0.373310000000     0.871590000000     0.942310000000    -0.432949   
F33      F      0.762290000000     0.587510000000     0.402600000000    -0.423123   
F34      F      0.822570000000     0.587340000000     0.152550000000    -0.429367   
F35      F      0.625580000000     0.636410000000     0.253640000000    -0.435185   
F36      F      0.959160000000     0.658480000000     0.336970000000    -0.427794   
F37      F      0.695780000000     0.039880000000     0.837330000000    -0.424849   
F38      F      0.868720000000     0.374420000000     0.756540000000    -0.412776   
F39      F      0.169630000000     0.706950000000     0.672430000000    -0.435593   
F40      F      0.635870000000     0.626830000000     0.945480000000    -0.42752    
F41      F      0.201190000000     0.039220000000     0.587270000000    -0.430538   
F42      F      0.323090000000     0.294050000000     0.528380000000    -0.428347   
F43      F      0.746110000000     0.843750000000     0.735940000000    -0.429136   
F44      F      0.745080000000     0.900810000000     0.549640000000    -0.421919   
F45      F      0.796000000000     0.837330000000     0.610620000000    -0.415947   
F46      F      0.634540000000     0.009360000000     0.695700000000    -0.424093   
F47      F      0.920680000000     0.489630000000     0.817160000000    -0.414966   
F48      F      0.920170000000     0.433730000000     0.567110000000    -0.433554   
F49      F      0.968030000000     0.675720000000     0.529240000000    -0.430423   
F50      F      0.409480000000     0.178840000000     0.965390000000    -0.434784   
F51      F      0.409760000000     0.237300000000     0.651680000000    -0.425946   
F52      F      0.500920000000     0.129910000000     0.754330000000    -0.427512   
F53      F      0.168570000000     0.462320000000     0.923430000000    -0.433292   
F54      F      0.160280000000     0.202100000000     0.860340000000    -0.429292   
F55      F      0.508810000000     0.429900000000     0.880100000000    -0.428495   
F56      F      0.566380000000     0.487950000000     0.566720000000    -0.429266   
F57      F      0.822490000000     0.237330000000     0.902840000000    -0.429383   
F58      F      0.765150000000     0.179850000000     0.716140000000    -0.423069   
F59      F      0.175420000000     0.413130000000     0.797280000000    -0.434162   
F60      F      0.153270000000     0.251710000000     0.486310000000    -0.423796   
F61      F      0.958440000000     0.163530000000     0.589600000000    -0.429704   
F62      F      0.372790000000     0.364360000000     0.695680000000    -0.429519   
F63      F      0.490730000000     0.921400000000     0.818600000000    -0.43167    
F64      F      0.433120000000     0.921710000000     0.632460000000    -0.436356   
F65      F      0.626030000000     0.992420000000     0.503500000000    -0.432525   
F66      F      0.152950000000     0.900030000000     0.798940000000    -0.437958   
F67      F      0.095360000000     0.842320000000     0.485530000000    -0.429435   
F68      F      0.373310000000     0.871590000000     0.442310000000    -0.43296    
F69      F      0.762300000000     0.587510000000     0.902600000000    -0.423143   
F70      F      0.822570000000     0.587340000000     0.652550000000    -0.429298   
F71      F      0.625580000000     0.636410000000     0.753640000000    -0.435188   
F72      F      0.959160000000     0.658480000000     0.836980000000    -0.42792    
H1       H      0.824360000000     0.037460000000     0.338890000000     0.0464517  
H2       H      0.788490000000     0.964220000000     0.360670000000     0.0533675  
H3       H      0.664670000000     0.961550000000     0.360070000000     0.109541   
H4       H      0.996720000000     0.370760000000     0.255520000000     0.0459527  
H5       H      0.959660000000     0.296030000000     0.276600000000     0.0504445  
H6       H      0.837720000000     0.297070000000     0.278910000000     0.124533   
H7       H      0.038480000000     0.704330000000     0.171530000000     0.0488812  
H8       H      0.000620000000     0.630040000000     0.193200000000     0.0587359  
H9       H      0.123020000000     0.629920000000     0.195500000000     0.104237   
H10      H      0.507610000000     0.629860000000     0.443670000000     0.0431395  
H11      H      0.543720000000     0.703030000000     0.421920000000     0.0502712  
H12      H      0.667340000000     0.705290000000     0.422760000000     0.104446   
H13      H      0.330390000000     0.037860000000     0.088010000000     0.0462051  
H14      H      0.294000000000     0.963330000000     0.109390000000     0.0527797  
H15      H      0.170950000000     0.962190000000     0.110100000000     0.10865    
H16      H      0.453670000000     0.295650000000     0.026170000000     0.062985   
H17      H      0.491230000000     0.369040000000     0.004650000000     0.0697955  
H18      H      0.370490000000     0.372470000000     0.505890000000     0.103746   
H19      H      0.596650000000     0.772600000000     0.235660000000     0.0443001  
H20      H      0.594170000000     0.773130000000     0.293870000000     0.0522036  
H21      H      0.735240000000     0.837240000000     0.297190000000     0.102924   
H22      H      0.595610000000     0.826230000000     0.044380000000     0.0445624  
H23      H      0.597270000000     0.828560000000     0.986150000000     0.0522514  
H24      H      0.738480000000     0.895680000000     0.988180000000     0.105581   
H25      H      0.667500000000     0.706160000000     0.111030000000     0.0469976  
H26      H      0.704270000000     0.668300000000     0.089710000000     0.0576549  
H27      H      0.826610000000     0.790860000000     0.087960000000     0.110998   
H28      H      0.506280000000     0.878170000000     0.192990000000     0.0569279  
H29      H      0.542800000000     0.841270000000     0.171330000000     0.0528782  
H30      H      0.666240000000     0.962730000000     0.173040000000     0.108426   
H31      H      0.070150000000     0.562820000000     0.322430000000     0.0449884  
H32      H      0.068470000000     0.563580000000     0.380700000000     0.050851   
H33      H      0.927230000000     0.491030000000     0.378590000000     0.112293   
H34      H      0.069630000000     0.507930000000     0.072540000000     0.041527   
H35      H      0.067790000000     0.505310000000     0.130800000000     0.0487091  
H36      H      0.926610000000     0.438620000000     0.128550000000     0.109794   
H37      H      0.839490000000     0.544770000000     0.026890000000     0.0568536  
H38      H      0.875680000000     0.507560000000     0.505280000000     0.0654602  
H39      H      0.999390000000     0.628740000000     0.006630000000     0.10436    
H40      H      0.260020000000     0.103460000000     0.460100000000     0.0516281  
H41      H      0.261740000000     0.102020000000     0.401870000000     0.054598   
H42      H      0.402920000000     0.176590000000     0.403920000000     0.105229   
H43      H      0.260420000000     0.156800000000     0.151330000000     0.0530666  
H44      H      0.257960000000     0.153050000000     0.209540000000     0.052714   
H45      H      0.398870000000     0.232070000000     0.212940000000     0.110157   
H46      H      0.370410000000     0.000730000000     0.254840000000     0.0457013  
H47      H      0.332150000000     0.037240000000     0.275920000000     0.0521041  
H48      H      0.454090000000     0.160220000000     0.276800000000     0.110963   
H49      H      0.036870000000     0.334420000000     0.422040000000     0.0463806  
H50      H      0.999280000000     0.371380000000     0.943390000000     0.0550792  
H51      H      0.122280000000     0.493230000000     0.446090000000     0.104387   
H52      H      0.291700000000     0.330320000000     0.360630000000     0.0478491  
H53      H      0.329170000000     0.293520000000     0.338910000000     0.0565861  
H54      H      0.206500000000     0.171290000000     0.337210000000     0.107371   
H55      H      0.438730000000     0.509300000000     0.380500000000     0.0422439  
H56      H      0.439260000000     0.512430000000     0.322310000000     0.0503265  
H57      H      0.502430000000     0.434550000000     0.318870000000     0.10734    
H58      H      0.492200000000     0.563340000000     0.071540000000     0.040101   
H59      H      0.494520000000     0.564250000000     0.129760000000     0.0476362  
H60      H      0.561320000000     0.489800000000     0.128140000000     0.108934   
H61      H      0.892220000000     0.157620000000     0.402230000000     0.0437053  
H62      H      0.891980000000     0.154610000000     0.460440000000     0.055377   
H63      H      0.829330000000     0.232960000000     0.464070000000     0.105497   
H64      H      0.838440000000     0.103620000000     0.211270000000     0.047499   
H65      H      0.836190000000     0.102800000000     0.153030000000     0.0615764  
H66      H      0.770340000000     0.178170000000     0.154690000000     0.109282   
H67      H      0.103170000000     0.263630000000     0.297300000000     0.0501213  
H68      H      0.104650000000     0.261340000000     0.239130000000     0.0508533  
H69      H      0.169760000000     0.402470000000     0.235950000000     0.10001    
H70      H      0.226560000000     0.401240000000     0.985820000000     0.0493482  
H71      H      0.226140000000     0.403930000000     0.044000000000     0.0488801  
H72      H      0.160160000000     0.262780000000     0.047600000000     0.109721   
H73      H      0.961910000000     0.295120000000     0.088790000000     0.0467445  
H74      H      0.036520000000     0.332670000000     0.110140000000     0.0485999  
H75      H      0.035550000000     0.209710000000     0.112260000000     0.109154   
H76      H      0.369530000000     0.492490000000     0.193100000000     0.0436962  
H77      H      0.296260000000     0.456020000000     0.171460000000     0.0499771  
H78      H      0.294310000000     0.332550000000     0.173020000000     0.106236   
H79      H      0.560310000000     0.070820000000     0.318470000000     0.0596586  
H80      H      0.559560000000     0.073140000000     0.376690000000     0.0582193  
H81      H      0.496930000000     0.932150000000     0.379870000000     0.111504   
H82      H      0.506720000000     0.071170000000     0.127010000000     0.0502772  
H83      H      0.504030000000     0.069340000000     0.068780000000     0.0527359  
H84      H      0.437870000000     0.928150000000     0.070990000000     0.105837   
H85      H      0.628840000000     0.123620000000     0.505500000000     0.0491716  
H86      H      0.702120000000     0.160600000000     0.027470000000     0.0564762  
H87      H      0.704080000000     0.039080000000     0.026480000000     0.108201   
H88      H      0.229330000000     0.826890000000     0.293940000000     0.0451145  
H89      H      0.230390000000     0.829490000000     0.235710000000     0.0581611  
H90      H      0.154880000000     0.895180000000     0.237470000000     0.102006   
H91      H      0.175750000000     0.773300000000     0.985000000000     0.0436299  
H92      H      0.178980000000     0.773850000000     0.043220000000     0.0534366  
H93      H      0.100000000000     0.835820000000     0.046770000000     0.108419   
H94      H      0.369980000000     0.999780000000     0.443900000000     0.0465937  
H95      H      0.295240000000     0.962920000000     0.422710000000     0.0518129  
H96      H      0.296140000000     0.840920000000     0.419870000000     0.105816   
H97      H      0.841130000000     0.736970000000     0.402370000000     0.0441737  
H98      H      0.844510000000     0.739400000000     0.460550000000     0.0544026  
H99      H      0.767070000000     0.598360000000     0.463890000000     0.111587   
H100     H      0.894060000000     0.736830000000     0.152450000000     0.0472418  
H101     H      0.893110000000     0.739180000000     0.210630000000     0.053147   
H102     H      0.828650000000     0.598080000000     0.213850000000     0.109183   
H103     H      0.628670000000     0.508200000000     0.256410000000     0.0535883  
H104     H      0.701870000000     0.544590000000     0.278090000000     0.0633477  
H105     H      0.704060000000     0.668180000000     0.276380000000     0.106186   
H106     H      0.961880000000     0.789610000000     0.339530000000     0.0482883  
H107     H      0.035210000000     0.826610000000     0.361170000000     0.0635408  
H108     H      0.037570000000     0.705300000000     0.359620000000     0.103953   
H109     H      0.824360000000     0.037450000000     0.838890000000     0.046438   
H110     H      0.788490000000     0.964220000000     0.860670000000     0.0533666  
H111     H      0.664670000000     0.961550000000     0.860070000000     0.109542   
H112     H      0.996720000000     0.370760000000     0.755520000000     0.0459667  
H113     H      0.959660000000     0.296030000000     0.776590000000     0.0504348  
H114     H      0.837730000000     0.297070000000     0.778910000000     0.124601   
H115     H      0.038480000000     0.704330000000     0.671530000000     0.0488821  
H116     H      0.000620000000     0.630040000000     0.693200000000     0.0587373  
H117     H      0.123020000000     0.629920000000     0.695500000000     0.104236   
H118     H      0.507610000000     0.629860000000     0.943670000000     0.0431335  
H119     H      0.543720000000     0.703030000000     0.921920000000     0.0502701  
H120     H      0.667340000000     0.705290000000     0.922760000000     0.104442   
H121     H      0.330390000000     0.037860000000     0.588010000000     0.0462051  
H122     H      0.294000000000     0.963320000000     0.609390000000     0.0527728  
H123     H      0.170950000000     0.962190000000     0.610100000000     0.108646   
H124     H      0.453660000000     0.295650000000     0.526170000000     0.0629698  
H125     H      0.491230000000     0.369040000000     0.504660000000     0.0697823  
H126     H      0.370490000000     0.372470000000     0.005890000000     0.103742   
H127     H      0.596650000000     0.772600000000     0.735660000000     0.0443026  
H128     H      0.594170000000     0.773130000000     0.793870000000     0.0522045  
H129     H      0.735240000000     0.837240000000     0.797200000000     0.102831   
H130     H      0.595610000000     0.826230000000     0.544390000000     0.0445862  
H131     H      0.597270000000     0.828560000000     0.486150000000     0.0522343  
H132     H      0.738480000000     0.895680000000     0.488180000000     0.105672   
H133     H      0.667490000000     0.706160000000     0.611030000000     0.047014   
H134     H      0.704270000000     0.668300000000     0.589710000000     0.0576405  
H135     H      0.826610000000     0.790860000000     0.587960000000     0.110993   
H136     H      0.506280000000     0.878170000000     0.692990000000     0.0569213  
H137     H      0.542800000000     0.841280000000     0.671330000000     0.0528862  
H138     H      0.666240000000     0.962730000000     0.673030000000     0.108414   
H139     H      0.070150000000     0.562820000000     0.822430000000     0.0449858  
H140     H      0.068470000000     0.563580000000     0.880700000000     0.0508644  
H141     H      0.927230000000     0.491030000000     0.878590000000     0.11229    
H142     H      0.069630000000     0.507930000000     0.572540000000     0.0415121  
H143     H      0.067790000000     0.505310000000     0.630800000000     0.0487072  
H144     H      0.926620000000     0.438620000000     0.628550000000     0.10982    
H145     H      0.839490000000     0.544770000000     0.526890000000     0.0568455  
H146     H      0.875680000000     0.507560000000     0.005280000000     0.0654872  
H147     H      0.999390000000     0.628740000000     0.506630000000     0.104332   
H148     H      0.260020000000     0.103460000000     0.960100000000     0.0516077  
H149     H      0.261740000000     0.102020000000     0.901870000000     0.0546103  
H150     H      0.402920000000     0.176590000000     0.903920000000     0.105275   
H151     H      0.260420000000     0.156800000000     0.651330000000     0.0530556  
H152     H      0.257960000000     0.153050000000     0.709540000000     0.0527149  
H153     H      0.398870000000     0.232070000000     0.712940000000     0.11016    
H154     H      0.370410000000     0.000730000000     0.754840000000     0.0457078  
H155     H      0.332160000000     0.037240000000     0.775920000000     0.0521101  
H156     H      0.454090000000     0.160220000000     0.776800000000     0.110955   
H157     H      0.036870000000     0.334420000000     0.922030000000     0.0463818  
H158     H      0.999280000000     0.371380000000     0.443390000000     0.0550822  
H159     H      0.122280000000     0.493230000000     0.946090000000     0.104382   
H160     H      0.291700000000     0.330320000000     0.860630000000     0.0478533  
H161     H      0.329170000000     0.293520000000     0.838910000000     0.0565895  
H162     H      0.206500000000     0.171290000000     0.837210000000     0.107365   
H163     H      0.438730000000     0.509300000000     0.880500000000     0.0422411  
H164     H      0.439260000000     0.512420000000     0.822310000000     0.0503276  
H165     H      0.502430000000     0.434550000000     0.818870000000     0.10733    
H166     H      0.492200000000     0.563340000000     0.571540000000     0.0400839  
H167     H      0.494520000000     0.564250000000     0.629760000000     0.0476319  
H168     H      0.561320000000     0.489800000000     0.628140000000     0.108869   
H169     H      0.892230000000     0.157620000000     0.902230000000     0.0436966  
H170     H      0.891980000000     0.154610000000     0.960450000000     0.0553722  
H171     H      0.829330000000     0.232960000000     0.964070000000     0.105478   
H172     H      0.838440000000     0.103620000000     0.711270000000     0.0475036  
H173     H      0.836190000000     0.102800000000     0.653030000000     0.0615759  
H174     H      0.770340000000     0.178170000000     0.654690000000     0.109276   
H175     H      0.103170000000     0.263630000000     0.797300000000     0.0501287  
H176     H      0.104650000000     0.261340000000     0.739120000000     0.0508446  
H177     H      0.169760000000     0.402470000000     0.735950000000     0.100019   
H178     H      0.226560000000     0.401230000000     0.485820000000     0.0493514  
H179     H      0.226140000000     0.403930000000     0.544000000000     0.0488817  
H180     H      0.160160000000     0.262780000000     0.547610000000     0.10966    
H181     H      0.961910000000     0.295120000000     0.588790000000     0.046738   
H182     H      0.036520000000     0.332670000000     0.610140000000     0.0485952  
H183     H      0.035550000000     0.209710000000     0.612260000000     0.109151   
H184     H      0.369530000000     0.492490000000     0.693110000000     0.0436942  
H185     H      0.296260000000     0.456020000000     0.671460000000     0.0499735  
H186     H      0.294310000000     0.332550000000     0.673020000000     0.106234   
H187     H      0.560310000000     0.070820000000     0.818470000000     0.0596527  
H188     H      0.559560000000     0.073140000000     0.876690000000     0.0582233  
H189     H      0.496930000000     0.932150000000     0.879860000000     0.111547   
H190     H      0.506720000000     0.071170000000     0.627010000000     0.0502724  
H191     H      0.504030000000     0.069340000000     0.568780000000     0.0527303  
H192     H      0.437870000000     0.928160000000     0.570990000000     0.105856   
H193     H      0.628840000000     0.123620000000     0.005500000000     0.0491978  
H194     H      0.702120000000     0.160600000000     0.527470000000     0.0564694  
H195     H      0.704080000000     0.039080000000     0.526480000000     0.108218   
H196     H      0.229330000000     0.826890000000     0.793940000000     0.0451123  
H197     H      0.230390000000     0.829490000000     0.735710000000     0.0581725  
H198     H      0.154880000000     0.895180000000     0.737470000000     0.101997   
H199     H      0.175750000000     0.773300000000     0.485000000000     0.0436294  
H200     H      0.178980000000     0.773840000000     0.543220000000     0.0534331  
H201     H      0.100000000000     0.835820000000     0.546770000000     0.108447   
H202     H      0.369980000000     0.999780000000     0.943900000000     0.0465807  
H203     H      0.295240000000     0.962920000000     0.922710000000     0.0518032  
H204     H      0.296140000000     0.840920000000     0.919870000000     0.105822   
H205     H      0.841130000000     0.736970000000     0.902370000000     0.0442048  
H206     H      0.844510000000     0.739400000000     0.960550000000     0.0543798  
H207     H      0.767080000000     0.598360000000     0.963890000000     0.111573   
H208     H      0.894060000000     0.736830000000     0.652450000000     0.0472386  
H209     H      0.893110000000     0.739180000000     0.710630000000     0.0531462  
H210     H      0.828650000000     0.598080000000     0.713840000000     0.109201   
H211     H      0.628670000000     0.508200000000     0.756410000000     0.0535894  
H212     H      0.701870000000     0.544590000000     0.778090000000     0.063348   
H213     H      0.704060000000     0.668170000000     0.776380000000     0.106225   
H214     H      0.961880000000     0.789610000000     0.839520000000     0.048283   
H215     H      0.035210000000     0.826610000000     0.861170000000     0.0635341  
H216     H      0.037570000000     0.705300000000     0.859620000000     0.103988   
N1       N      0.723720000000     0.957110000000     0.362180000000    -0.156187   
N2       N      0.765700000000     0.042950000000     0.337020000000    -0.225229   
N3       N      0.895820000000     0.290710000000     0.279460000000    -0.153923   
N4       N      0.938400000000     0.376750000000     0.254570000000    -0.224898   
N5       N      0.058850000000     0.624180000000     0.196100000000    -0.156018   
N6       N      0.102570000000     0.709810000000     0.170520000000    -0.226255   
N7       N      0.608420000000     0.709940000000     0.420540000000    -0.157333   
N8       N      0.566120000000     0.624090000000     0.445690000000    -0.225856   
N9       N      0.229670000000     0.956960000000     0.111500000000    -0.156403   
N10      N      0.271480000000     0.042780000000     0.086260000000    -0.226356   
N11      N      0.433800000000     0.376550000000     0.003490000000    -0.154198   
N12      N      0.389700000000     0.290540000000     0.028350000000    -0.222599   
N13      N      0.664560000000     0.806410000000     0.299810000000    -0.156411   
N14      N      0.667550000000     0.807970000000     0.232960000000    -0.227091   
N15      N      0.668020000000     0.861040000000     0.982920000000    -0.156393   
N16      N      0.666120000000     0.860470000000     0.049830000000    -0.226287   
N17      N      0.768280000000     0.726600000000     0.087100000000    -0.155182   
N18      N      0.726060000000     0.770240000000     0.112270000000    -0.224372   
N19      N      0.607420000000     0.899130000000     0.170390000000    -0.156262   
N20      N      0.564760000000     0.942380000000     0.195400000000    -0.223086   
N21      N      0.997700000000     0.526080000000     0.383870000000    -0.156073   
N22      N      0.999630000000     0.527330000000     0.316980000000    -0.225166   
N23      N      0.997060000000     0.473020000000     0.133900000000    -0.156903   
N24      N      0.999130000000     0.473880000000     0.067020000000    -0.227769   
N25      N      0.940420000000     0.565250000000     0.004180000000    -0.155008   
N26      N      0.898120000000     0.608890000000     0.029140000000    -0.224104   
N27      N      0.332460000000     0.140430000000     0.398650000000    -0.157062   
N28      N      0.330530000000     0.139980000000     0.465540000000    -0.226935   
N29      N      0.328290000000     0.191150000000     0.215500000000    -0.156003   
N30      N      0.331290000000     0.193450000000     0.148660000000    -0.226377   
N31      N      0.390110000000     0.101560000000     0.278080000000    -0.156248   
N32      N      0.434200000000     0.059620000000     0.253190000000    -0.226157   
N33      N      0.057820000000     0.435160000000     0.446460000000    -0.156389   
N34      N      0.101200000000     0.392710000000     0.421260000000    -0.226129   
N35      N      0.270770000000     0.229550000000     0.336310000000    -0.155689   
N36      N      0.227510000000     0.271880000000     0.361920000000    -0.225257   
N37      N      0.472080000000     0.474870000000     0.316310000000    -0.156217   
N38      N      0.473610000000     0.473240000000     0.383150000000    -0.227938   
N39      N      0.526800000000     0.525790000000     0.133200000000    -0.156451   
N40      N      0.526180000000     0.526750000000     0.066300000000    -0.227378   
N41      N      0.859500000000     0.192470000000     0.466530000000    -0.15649    
N42      N      0.857550000000     0.193870000000     0.399690000000    -0.228324   
N43      N      0.804380000000     0.141700000000     0.149620000000    -0.155049   
N44      N      0.804840000000     0.140560000000     0.216520000000    -0.225982   
N45      N      0.138470000000     0.331770000000     0.233290000000    -0.157997   
N46      N      0.138950000000     0.334530000000     0.300150000000    -0.227818   
N47      N      0.192020000000     0.333540000000     0.050070000000    -0.15635    
N48      N      0.190270000000     0.330320000000     0.983200000000    -0.226754   
N49      N      0.041870000000     0.274150000000     0.112910000000    -0.156806   
N50      N      0.956020000000     0.230870000000     0.087710000000    -0.226262   
N51      N      0.289470000000     0.391360000000     0.170470000000    -0.156975   
N52      N      0.375410000000     0.434060000000     0.195500000000    -0.225887   
N53      N      0.526980000000     0.002760000000     0.382550000000    -0.154883   
N54      N      0.525680000000     0.999930000000     0.315700000000    -0.22546    
N55      N      0.471980000000     0.998600000000     0.065640000000    -0.156719   
N56      N      0.472950000000     0.000680000000     0.132540000000    -0.227008   
N57      N      0.708870000000     0.102730000000     0.028780000000    -0.155823   
N58      N      0.623160000000     0.059400000000     0.003400000000    -0.225525   
N59      N      0.191460000000     0.861270000000     0.232350000000    -0.156943   
N60      N      0.192330000000     0.860430000000     0.299250000000    -0.228401   
N61      N      0.140820000000     0.806020000000     0.049270000000    -0.155782   
N62      N      0.139170000000     0.807630000000     0.982420000000    -0.228167   
N63      N      0.289850000000     0.899070000000     0.419590000000    -0.156679   
N64      N      0.375800000000     0.941370000000     0.444620000000    -0.226245   
N65      N      0.807170000000     0.669020000000     0.466490000000    -0.154891   
N66      N      0.805300000000     0.666060000000     0.399630000000    -0.226943   
N67      N      0.859630000000     0.668770000000     0.216510000000    -0.156136   
N68      N      0.858570000000     0.665920000000     0.149640000000    -0.227697   
N69      N      0.708770000000     0.609310000000     0.279020000000    -0.154864   
N70      N      0.622870000000     0.566670000000     0.253920000000    -0.225204   
N71      N      0.042190000000     0.768850000000     0.362170000000    -0.154604   
N72      N      0.956250000000     0.725420000000     0.337150000000    -0.225305   
N73      N      0.723720000000     0.957110000000     0.862180000000    -0.156181   
N74      N      0.765700000000     0.042950000000     0.837020000000    -0.225268   
N75      N      0.895830000000     0.290710000000     0.779460000000    -0.153869   
N76      N      0.938400000000     0.376750000000     0.754570000000    -0.224817   
N77      N      0.058850000000     0.624180000000     0.696100000000    -0.156017   
N78      N      0.102570000000     0.709810000000     0.670520000000    -0.226256   
N79      N      0.608420000000     0.709940000000     0.920540000000    -0.157337   
N80      N      0.566120000000     0.624090000000     0.945690000000    -0.22586    
N81      N      0.229670000000     0.956960000000     0.611500000000    -0.156413   
N82      N      0.271480000000     0.042780000000     0.586260000000    -0.226356   
N83      N      0.433790000000     0.376550000000     0.503490000000    -0.15425    
N84      N      0.389700000000     0.290540000000     0.528350000000    -0.222609   
N85      N      0.664560000000     0.806410000000     0.799810000000    -0.156448   
N86      N      0.667550000000     0.807970000000     0.732960000000    -0.227069   
N87      N      0.668020000000     0.861040000000     0.482920000000    -0.156356   
N88      N      0.666120000000     0.860470000000     0.549830000000    -0.226336   
N89      N      0.768280000000     0.726600000000     0.587100000000    -0.155211   
N90      N      0.726060000000     0.770250000000     0.612270000000    -0.224415   
N91      N      0.607430000000     0.899130000000     0.670390000000    -0.156309   
N92      N      0.564760000000     0.942380000000     0.695400000000    -0.223087   
N93      N      0.997700000000     0.526080000000     0.883870000000    -0.156061   
N94      N      0.999630000000     0.527330000000     0.816980000000    -0.225167   
N95      N      0.997060000000     0.473020000000     0.633900000000    -0.156891   
N96      N      0.999130000000     0.473880000000     0.567020000000    -0.227776   
N97      N      0.940420000000     0.565250000000     0.504180000000    -0.15509    
N98      N      0.898120000000     0.608890000000     0.529140000000    -0.224104   
N99      N      0.332460000000     0.140430000000     0.898650000000    -0.157021   
N100     N      0.330530000000     0.139980000000     0.965540000000    -0.226926   
N101     N      0.328290000000     0.191150000000     0.715500000000    -0.155979   
N102     N      0.331290000000     0.193450000000     0.648660000000    -0.226462   
N103     N      0.390120000000     0.101560000000     0.778080000000    -0.15618    
N104     N      0.434200000000     0.059620000000     0.753180000000    -0.226192   
N105     N      0.057820000000     0.435160000000     0.946470000000    -0.156416   
N106     N      0.101200000000     0.392710000000     0.921260000000    -0.226119   
N107     N      0.270770000000     0.229550000000     0.836310000000    -0.155711   
N108     N      0.227510000000     0.271880000000     0.861930000000    -0.225293   
N109     N      0.472080000000     0.474870000000     0.816310000000    -0.156253   
N110     N      0.473610000000     0.473240000000     0.883150000000    -0.22796    
N111     N      0.526800000000     0.525790000000     0.633200000000    -0.156507   
N112     N      0.526180000000     0.526750000000     0.566300000000    -0.227511   
N113     N      0.859500000000     0.192470000000     0.966530000000    -0.15646    
N114     N      0.857550000000     0.193870000000     0.899690000000    -0.228363   
N115     N      0.804380000000     0.141700000000     0.649620000000    -0.155059   
N116     N      0.804840000000     0.140560000000     0.716520000000    -0.225994   
N117     N      0.138470000000     0.331760000000     0.733290000000    -0.158021   
N118     N      0.138950000000     0.334530000000     0.800150000000    -0.227811   
N119     N      0.192020000000     0.333540000000     0.550070000000    -0.156367   
N120     N      0.190270000000     0.330320000000     0.483200000000    -0.226658   
N121     N      0.041870000000     0.274150000000     0.612910000000    -0.156807   
N122     N      0.956020000000     0.230870000000     0.587710000000    -0.226262   
N123     N      0.289470000000     0.391360000000     0.670470000000    -0.15698    
N124     N      0.375410000000     0.434060000000     0.695510000000    -0.225948   
N125     N      0.526990000000     0.002760000000     0.882550000000    -0.154846   
N126     N      0.525680000000     0.999930000000     0.815700000000    -0.225491   
N127     N      0.471980000000     0.998600000000     0.565640000000    -0.156717   
N128     N      0.472950000000     0.000680000000     0.632540000000    -0.227019   
N129     N      0.708870000000     0.102730000000     0.528780000000    -0.155805   
N130     N      0.623160000000     0.059400000000     0.503400000000    -0.225575   
N131     N      0.191460000000     0.861270000000     0.732350000000    -0.156957   
N132     N      0.192330000000     0.860430000000     0.799250000000    -0.228401   
N133     N      0.140820000000     0.806020000000     0.549270000000    -0.155762   
N134     N      0.139170000000     0.807630000000     0.482420000000    -0.228063   
N135     N      0.289850000000     0.899070000000     0.919590000000    -0.15668    
N136     N      0.375800000000     0.941370000000     0.944610000000    -0.226214   
N137     N      0.807170000000     0.669020000000     0.966480000000    -0.154791   
N138     N      0.805290000000     0.666050000000     0.899630000000    -0.226938   
N139     N      0.859630000000     0.668770000000     0.716510000000    -0.156116   
N140     N      0.858580000000     0.665920000000     0.649640000000    -0.227714   
N141     N      0.708770000000     0.609310000000     0.779020000000    -0.154838   
N142     N      0.622870000000     0.566670000000     0.753920000000    -0.225181   
N143     N      0.042190000000     0.768850000000     0.862170000000    -0.154596   
N144     N      0.956250000000     0.725420000000     0.837150000000    -0.225377   
Ni1      Ni     0.829460000000     0.632050000000     0.310790000000     1.05362    
Ni2      Ni     0.835440000000     0.702750000000     0.305350000000     1.01675    
Ni3      Ni     0.168880000000     0.801770000000     0.387910000000     1.0188     
Ni4      Ni     0.163150000000     0.866570000000     0.393860000000     1.0385     
Ni5      Ni     0.496870000000     0.965550000000     0.976740000000     1.04746    
Ni6      Ni     0.502060000000     0.035900000000     0.471460000000     1.01637    
Ni7      Ni     0.162830000000     0.297580000000     0.144560000000     1.02659    
Ni8      Ni     0.168460000000     0.368130000000     0.138890000000     1.00939    
Ni9      Ni     0.834820000000     0.134460000000     0.055480000000     1.04252    
Ni10     Ni     0.829980000000     0.199840000000     0.060770000000     1.02068    
Ni11     Ni     0.502320000000     0.468090000000     0.222160000000     1.04127    
Ni12     Ni     0.495950000000     0.532610000000     0.227280000000     1.01938    
Ni13     Ni     0.197250000000     0.367250000000     0.388950000000     1.03761    
Ni14     Ni     0.131600000000     0.297390000000     0.394420000000     1.03891    
Ni15     Ni     0.365370000000     0.198210000000     0.309720000000     1.03169    
Ni16     Ni     0.295210000000     0.132770000000     0.304380000000     1.01829    
Ni17     Ni     0.034130000000     0.532370000000     0.978260000000     1.01505    
Ni18     Ni     0.963610000000     0.467500000000     0.972480000000     1.03994    
Ni19     Ni     0.701650000000     0.867000000000     0.144420000000     1.06414    
Ni20     Ni     0.631380000000     0.801930000000     0.138550000000     1.00769    
Ni21     Ni     0.865400000000     0.702760000000     0.055340000000     1.03612    
Ni22     Ni     0.800400000000     0.632320000000     0.060780000000     1.03663    
Ni23     Ni     0.531520000000     0.035960000000     0.221250000000     1.05752    
Ni24     Ni     0.466810000000     0.965450000000     0.227140000000     1.03226    
Ni25     Ni     0.295510000000     0.163860000000     0.054160000000     1.04936    
Ni26     Ni     0.365860000000     0.169290000000     0.060110000000     1.03779    
Ni27     Ni     0.467860000000     0.503520000000     0.977520000000     1.01085    
Ni28     Ni     0.532250000000     0.497050000000     0.971810000000     1.0622     
Ni29     Ni     0.133400000000     0.835610000000     0.143490000000     1.0224     
Ni30     Ni     0.198980000000     0.831150000000     0.138190000000     1.03151    
Ni31     Ni     0.963720000000     0.498350000000     0.222490000000     1.05945    
Ni32     Ni     0.033690000000     0.502810000000     0.228250000000     1.01027    
Ni33     Ni     0.798540000000     0.169720000000     0.311140000000     1.0651     
Ni34     Ni     0.863330000000     0.164010000000     0.305230000000     1.01039    
Ni35     Ni     0.630720000000     0.830480000000     0.388750000000     1.0238     
Ni36     Ni     0.701520000000     0.836590000000     0.394020000000     1.01969    
Ni37     Ni     0.829460000000     0.632050000000     0.810790000000     1.05386    
Ni38     Ni     0.835440000000     0.702750000000     0.805350000000     1.01658    
Ni39     Ni     0.168880000000     0.801770000000     0.887910000000     1.01897    
Ni40     Ni     0.163150000000     0.866580000000     0.893860000000     1.03879    
Ni41     Ni     0.496880000000     0.965550000000     0.476750000000     1.04758    
Ni42     Ni     0.502060000000     0.035900000000     0.971460000000     1.01623    
Ni43     Ni     0.162830000000     0.297580000000     0.644560000000     1.02662    
Ni44     Ni     0.168460000000     0.368130000000     0.638890000000     1.0094     
Ni45     Ni     0.834820000000     0.134460000000     0.555480000000     1.0425     
Ni46     Ni     0.829980000000     0.199840000000     0.560770000000     1.02051    
Ni47     Ni     0.502320000000     0.468090000000     0.722160000000     1.04126    
Ni48     Ni     0.495950000000     0.532610000000     0.727270000000     1.01953    
Ni49     Ni     0.197250000000     0.367250000000     0.888950000000     1.03746    
Ni50     Ni     0.131600000000     0.297390000000     0.894430000000     1.03904    
Ni51     Ni     0.365370000000     0.198210000000     0.809720000000     1.0317     
Ni52     Ni     0.295210000000     0.132770000000     0.804380000000     1.01813    
Ni53     Ni     0.034130000000     0.532370000000     0.478260000000     1.01511    
Ni54     Ni     0.963610000000     0.467500000000     0.472480000000     1.04012    
Ni55     Ni     0.701650000000     0.867000000000     0.644420000000     1.06415    
Ni56     Ni     0.631380000000     0.801930000000     0.638550000000     1.00769    
Ni57     Ni     0.865400000000     0.702760000000     0.555340000000     1.03612    
Ni58     Ni     0.800400000000     0.632320000000     0.560780000000     1.03664    
Ni59     Ni     0.531520000000     0.035960000000     0.721250000000     1.05756    
Ni60     Ni     0.466810000000     0.965450000000     0.727140000000     1.03215    
Ni61     Ni     0.295510000000     0.163860000000     0.554160000000     1.04936    
Ni62     Ni     0.365860000000     0.169290000000     0.560110000000     1.0378     
Ni63     Ni     0.467860000000     0.503520000000     0.477520000000     1.01087    
Ni64     Ni     0.532250000000     0.497050000000     0.471810000000     1.06229    
Ni65     Ni     0.133400000000     0.835610000000     0.643490000000     1.02246    
Ni66     Ni     0.198980000000     0.831150000000     0.638190000000     1.03151    
Ni67     Ni     0.963720000000     0.498350000000     0.722490000000     1.05947    
Ni68     Ni     0.033690000000     0.502810000000     0.728250000000     1.01022    
Ni69     Ni     0.798540000000     0.169720000000     0.811130000000     1.06496    
Ni70     Ni     0.863330000000     0.164010000000     0.805230000000     1.01039    
Ni71     Ni     0.630720000000     0.830470000000     0.888750000000     1.02386    
Ni72     Ni     0.701520000000     0.836590000000     0.894020000000     1.01959    
O1       O      0.845560000000     0.636070000000     0.266350000000    -0.433089   
O2       O      0.812630000000     0.632120000000     0.354700000000    -0.405264   
O3       O      0.769120000000     0.606450000000     0.297860000000    -0.433964   
O4       O      0.890820000000     0.662560000000     0.323340000000    -0.399913   
O5       O      0.895830000000     0.728310000000     0.318320000000    -0.449762   
O6       O      0.774040000000     0.672220000000     0.292770000000    -0.432357   
O7       O      0.819360000000     0.698730000000     0.349790000000    -0.446715   
O8       O      0.852270000000     0.702690000000     0.261420000000    -0.438217   
O9       O      0.153210000000     0.789470000000     0.432420000000    -0.447442   
O10      O      0.185300000000     0.818910000000     0.343960000000    -0.446718   
O11      O      0.229300000000     0.836290000000     0.400570000000    -0.443389   
O12      O      0.107440000000     0.771110000000     0.375650000000    -0.435267   
O13      O      0.102680000000     0.832020000000     0.380980000000    -0.426201   
O14      O      0.224640000000     0.897210000000     0.406320000000    -0.437859   
O15      O      0.179070000000     0.879000000000     0.349420000000    -0.410278   
O16      O      0.146430000000     0.849290000000     0.437730000000    -0.410964   
O17      O      0.479770000000     0.965180000000     0.020630000000    -0.433039   
O18      O      0.513210000000     0.969970000000     0.432340000000    -0.429156   
O19      O      0.558060000000     0.996450000000     0.989410000000    -0.403983   
O20      O      0.436650000000     0.939480000000     0.463700000000    -0.407657   
O21      O      0.440600000000     0.004750000000     0.458770000000    -0.442071   
O22      O      0.562530000000     0.061970000000     0.984510000000    -0.446977   
O23      O      0.519090000000     0.036240000000     0.427530000000    -0.437662   
O24      O      0.485850000000     0.031560000000     0.015900000000    -0.440289   
O25      O      0.146210000000     0.297870000000     0.188500000000    -0.440564   
O26      O      0.178600000000     0.301310000000     0.100060000000    -0.433893   
O27      O      0.224270000000     0.328340000000     0.156920000000    -0.434151   
O28      O      0.102420000000     0.271750000000     0.131820000000    -0.440915   
O29      O      0.106990000000     0.337340000000     0.126470000000    -0.439567   
O30      O      0.228930000000     0.393990000000     0.151710000000    -0.443631   
O31      O      0.185090000000     0.367820000000     0.094940000000    -0.441444   
O32      O      0.152550000000     0.364320000000     0.183380000000    -0.440483   
O33      O      0.851780000000     0.151110000000     0.011520000000    -0.436049   
O34      O      0.818610000000     0.122680000000     0.099970000000    -0.431904   
O35      O      0.773590000000     0.104410000000     0.042910000000    -0.435114   
O36      O      0.895110000000     0.168390000000     0.068430000000    -0.406165   
O37      O      0.891360000000     0.229790000000     0.073600000000    -0.441266   
O38      O      0.769550000000     0.165800000000     0.047570000000    -0.43924    
O39      O      0.812660000000     0.183060000000     0.104600000000    -0.435613   
O40      O      0.846420000000     0.211790000000     0.016410000000    -0.437884   
O41      O      0.519330000000     0.484850000000     0.178300000000    -0.433154   
O42      O      0.486040000000     0.456080000000     0.266530000000    -0.435543   
O43      O      0.441000000000     0.436950000000     0.209450000000    -0.401124   
O44      O      0.562590000000     0.503170000000     0.235240000000    -0.448154   
O45      O      0.557330000000     0.563810000000     0.239850000000    -0.402977   
O46      O      0.435620000000     0.497500000000     0.214330000000    -0.451859   
O47      O      0.479200000000     0.515930000000     0.271260000000    -0.437563   
O48      O      0.512060000000     0.544470000000     0.182800000000    -0.438511   
O49      O      0.180420000000     0.367800000000     0.345110000000    -0.409632   
O50      O      0.209280000000     0.362780000000     0.433330000000    -0.443843   
O51      O      0.226760000000     0.335500000000     0.376150000000    -0.444448   
O52      O      0.163690000000     0.394040000000     0.402120000000    -0.401159   
O53      O      0.102020000000     0.329110000000     0.407130000000    -0.445388   
O54      O      0.165140000000     0.270560000000     0.381330000000    -0.399244   
O55      O      0.148440000000     0.296950000000     0.438330000000    -0.406847   
O56      O      0.119690000000     0.301860000000     0.349980000000    -0.444776   
O57      O      0.365800000000     0.181500000000     0.353590000000    -0.436108   
O58      O      0.360930000000     0.210120000000     0.265330000000    -0.435131   
O59      O      0.334110000000     0.228240000000     0.322380000000    -0.435368   
O60      O      0.391750000000     0.164240000000     0.296720000000    -0.439856   
O61      O      0.326560000000     0.102660000000     0.291890000000    -0.436853   
O62      O      0.268810000000     0.166850000000     0.317250000000    -0.439825   
O63      O      0.294940000000     0.149420000000     0.260400000000    -0.439108   
O64      O      0.299540000000     0.121070000000     0.348890000000    -0.439124   
O65      O      0.033580000000     0.515340000000     0.022250000000    -0.446318   
O66      O      0.030500000000     0.544490000000     0.433710000000    -0.440312   
O67      O      0.003320000000     0.562970000000     0.990520000000    -0.436437   
O68      O      0.060080000000     0.497910000000     0.465590000000    -0.443671   
O69      O      0.994530000000     0.436990000000     0.459890000000    -0.436176   
O70      O      0.937670000000     0.501990000000     0.985480000000    -0.431421   
O71      O      0.963840000000     0.484690000000     0.428670000000    -0.436216   
O72      O      0.967380000000     0.455120000000     0.016850000000    -0.408813   
O73      O      0.697920000000     0.879340000000     0.100010000000    -0.402766   
O74      O      0.701400000000     0.849820000000     0.188260000000    -0.409515   
O75      O      0.727870000000     0.832880000000     0.131510000000    -0.391043   
O76      O      0.670560000000     0.897230000000     0.156900000000    -0.436535   
O77      O      0.605080000000     0.836150000000     0.151440000000    -0.443752   
O78      O      0.662640000000     0.771700000000     0.126070000000    -0.441603   
O79      O      0.635120000000     0.789630000000     0.183020000000    -0.445444   
O80      O      0.631760000000     0.819060000000     0.094620000000    -0.44719    
O81      O      0.877330000000     0.698660000000     0.099830000000    -0.443052   
O82      O      0.848620000000     0.702770000000     0.011380000000    -0.435535   
O83      O      0.831030000000     0.728740000000     0.068160000000    -0.442072   
O84      O      0.895890000000     0.671920000000     0.042910000000    -0.401371   
O85      O      0.834900000000     0.606370000000     0.047810000000    -0.439154   
O86      O      0.769900000000     0.663260000000     0.073380000000    -0.433181   
O87      O      0.788360000000     0.636460000000     0.016350000000    -0.433882   
O88      O      0.817260000000     0.632220000000     0.104680000000    -0.408671   
O89      O      0.543790000000     0.032470000000     0.265780000000    -0.432002   
O90      O      0.514400000000     0.035290000000     0.177270000000    -0.440263   
O91      O      0.497000000000     0.061820000000     0.233920000000    -0.407501   
O92      O      0.562210000000     0.005270000000     0.209000000000    -0.399086   
O93      O      0.501430000000     0.939610000000     0.214150000000    -0.432399   
O94      O      0.436220000000     0.996340000000     0.239710000000    -0.443677   
O95      O      0.454310000000     0.969020000000     0.182760000000    -0.409946   
O96      O      0.484080000000     0.965830000000     0.270960000000    -0.411331   
O97      O      0.296130000000     0.147350000000     0.010190000000    -0.438579   
O98      O      0.298990000000     0.179600000000     0.098680000000    -0.436962   
O99      O      0.326480000000     0.225300000000     0.041880000000    -0.4        
O100     O      0.269410000000     0.103440000000     0.066870000000    -0.40765    
O101     O      0.334780000000     0.107870000000     0.072690000000    -0.444732   
O102     O      0.391940000000     0.229730000000     0.047130000000    -0.43127    
O103     O      0.365500000000     0.186190000000     0.103920000000    -0.410615   
O104     O      0.362260000000     0.153200000000     0.015740000000    -0.410125   
O105     O      0.484970000000     0.520020000000     0.021460000000    -0.44811    
O106     O      0.455540000000     0.487670000000     0.433050000000    -0.448753   
O107     O      0.436710000000     0.442110000000     0.989920000000    -0.435363   
O108     O      0.502890000000     0.563880000000     0.464710000000    -0.453093   
O109     O      0.563350000000     0.558450000000     0.459280000000    -0.400267   
O110     O      0.497270000000     0.436690000000     0.984740000000    -0.426468   
O111     O      0.515040000000     0.480330000000     0.427940000000    -0.406289   
O112     O      0.544660000000     0.513080000000     0.016210000000    -0.404279   
O113     O      0.150120000000     0.852950000000     0.187320000000    -0.43837    
O114     O      0.121500000000     0.819160000000     0.099120000000    -0.435438   
O115     O      0.103680000000     0.774350000000     0.156280000000    -0.44305    
O116     O      0.167120000000     0.895940000000     0.130340000000    -0.440566   
O117     O      0.228820000000     0.892510000000     0.125560000000    -0.438043   
O118     O      0.165170000000     0.770740000000     0.151220000000    -0.40583    
O119     O      0.182340000000     0.814080000000     0.094230000000    -0.437156   
O120     O      0.210720000000     0.847400000000     0.182670000000    -0.435048   
O121     O      0.967800000000     0.514650000000     0.266840000000    -0.39873    
O122     O      0.963590000000     0.481160000000     0.178690000000    -0.434928   
O123     O      0.937060000000     0.437980000000     0.235550000000    -0.395696   
O124     O      0.995260000000     0.559640000000     0.209810000000    -0.435056   
O125     O      0.060410000000     0.563310000000     0.215380000000    -0.441191   
O126     O      0.002030000000     0.441350000000     0.240700000000    -0.443298   
O127     O      0.029750000000     0.486820000000     0.183750000000    -0.442353   
O128     O      0.033570000000     0.519610000000     0.272200000000    -0.444162   
O129     O      0.786190000000     0.153860000000     0.266680000000    -0.39919    
O130     O      0.815760000000     0.186390000000     0.355020000000    -0.407733   
O131     O      0.832970000000     0.230110000000     0.298340000000    -0.42444    
O132     O      0.767950000000     0.108340000000     0.323520000000    -0.400144   
O133     O      0.828740000000     0.103520000000     0.318030000000    -0.449583   
O134     O      0.893950000000     0.225530000000     0.292850000000    -0.437482   
O135     O      0.875690000000     0.179830000000     0.349700000000    -0.448762   
O136     O      0.846180000000     0.147460000000     0.261300000000    -0.446445   
O137     O      0.634870000000     0.846560000000     0.433220000000    -0.437791   
O138     O      0.630680000000     0.813680000000     0.344790000000    -0.439005   
O139     O      0.605300000000     0.770150000000     0.401680000000    -0.44506    
O140     O      0.661080000000     0.891830000000     0.376180000000    -0.432379   
O141     O      0.726950000000     0.896900000000     0.380960000000    -0.442354   
O142     O      0.671150000000     0.775250000000     0.406690000000    -0.435362   
O143     O      0.697280000000     0.820340000000     0.349620000000    -0.438789   
O144     O      0.701650000000     0.853580000000     0.437900000000    -0.437314   
O145     O      0.845560000000     0.636070000000     0.766350000000    -0.43308    
O146     O      0.812640000000     0.632120000000     0.854700000000    -0.405253   
O147     O      0.769120000000     0.606450000000     0.797860000000    -0.434005   
O148     O      0.890810000000     0.662560000000     0.823330000000    -0.400085   
O149     O      0.895830000000     0.728310000000     0.818320000000    -0.449748   
O150     O      0.774030000000     0.672220000000     0.792770000000    -0.432242   
O151     O      0.819360000000     0.698730000000     0.849790000000    -0.446674   
O152     O      0.852260000000     0.702690000000     0.761420000000    -0.438155   
O153     O      0.153210000000     0.789470000000     0.932420000000    -0.447517   
O154     O      0.185300000000     0.818910000000     0.843960000000    -0.44673    
O155     O      0.229300000000     0.836290000000     0.900570000000    -0.443419   
O156     O      0.107440000000     0.771110000000     0.875660000000    -0.435316   
O157     O      0.102680000000     0.832020000000     0.880980000000    -0.426253   
O158     O      0.224640000000     0.897210000000     0.906320000000    -0.437921   
O159     O      0.179070000000     0.879000000000     0.849430000000    -0.410393   
O160     O      0.146430000000     0.849280000000     0.937730000000    -0.411176   
O161     O      0.479770000000     0.965180000000     0.520630000000    -0.433201   
O162     O      0.513210000000     0.969970000000     0.932340000000    -0.429202   
O163     O      0.558060000000     0.996450000000     0.489410000000    -0.404112   
O164     O      0.436650000000     0.939480000000     0.963700000000    -0.40775    
O165     O      0.440600000000     0.004750000000     0.958770000000    -0.442072   
O166     O      0.562530000000     0.061970000000     0.484510000000    -0.446905   
O167     O      0.519090000000     0.036240000000     0.927530000000    -0.43765    
O168     O      0.485850000000     0.031560000000     0.515900000000    -0.440364   
O169     O      0.146210000000     0.297870000000     0.688500000000    -0.440547   
O170     O      0.178600000000     0.301310000000     0.600060000000    -0.433894   
O171     O      0.224270000000     0.328340000000     0.656910000000    -0.434182   
O172     O      0.102420000000     0.271750000000     0.631820000000    -0.440922   
O173     O      0.106990000000     0.337340000000     0.626470000000    -0.439569   
O174     O      0.228930000000     0.393990000000     0.651710000000    -0.443633   
O175     O      0.185090000000     0.367820000000     0.594940000000    -0.441448   
O176     O      0.152550000000     0.364320000000     0.683380000000    -0.440552   
O177     O      0.851780000000     0.151110000000     0.511520000000    -0.436158   
O178     O      0.818610000000     0.122680000000     0.599970000000    -0.431912   
O179     O      0.773590000000     0.104410000000     0.542900000000    -0.435093   
O180     O      0.895110000000     0.168390000000     0.568430000000    -0.406165   
O181     O      0.891360000000     0.229790000000     0.573600000000    -0.441255   
O182     O      0.769550000000     0.165800000000     0.547570000000    -0.439228   
O183     O      0.812660000000     0.183060000000     0.604600000000    -0.43559    
O184     O      0.846420000000     0.211790000000     0.516400000000    -0.437928   
O185     O      0.519330000000     0.484850000000     0.678300000000    -0.433185   
O186     O      0.486030000000     0.456080000000     0.766530000000    -0.435607   
O187     O      0.441000000000     0.436950000000     0.709450000000    -0.401129   
O188     O      0.562590000000     0.503170000000     0.735240000000    -0.448193   
O189     O      0.557330000000     0.563810000000     0.739850000000    -0.402985   
O190     O      0.435630000000     0.497500000000     0.714330000000    -0.451996   
O191     O      0.479200000000     0.515930000000     0.771260000000    -0.437436   
O192     O      0.512060000000     0.544470000000     0.682800000000    -0.438654   
O193     O      0.180420000000     0.367800000000     0.845110000000    -0.409596   
O194     O      0.209280000000     0.362780000000     0.933330000000    -0.443885   
O195     O      0.226760000000     0.335490000000     0.876150000000    -0.444488   
O196     O      0.163680000000     0.394040000000     0.902110000000    -0.401199   
O197     O      0.102020000000     0.329110000000     0.907130000000    -0.445472   
O198     O      0.165140000000     0.270560000000     0.881330000000    -0.399293   
O199     O      0.148440000000     0.296960000000     0.938330000000    -0.407107   
O200     O      0.119690000000     0.301860000000     0.849980000000    -0.444679   
O201     O      0.365800000000     0.181500000000     0.853590000000    -0.436141   
O202     O      0.360930000000     0.210120000000     0.765330000000    -0.435097   
O203     O      0.334110000000     0.228240000000     0.822380000000    -0.435353   
O204     O      0.391750000000     0.164240000000     0.796720000000    -0.439836   
O205     O      0.326560000000     0.102660000000     0.791890000000    -0.436809   
O206     O      0.268810000000     0.166850000000     0.817250000000    -0.439776   
O207     O      0.294940000000     0.149410000000     0.760400000000    -0.439027   
O208     O      0.299540000000     0.121070000000     0.848900000000    -0.439083   
O209     O      0.033580000000     0.515350000000     0.522250000000    -0.446343   
O210     O      0.030500000000     0.544490000000     0.933710000000    -0.4403     
O211     O      0.003320000000     0.562970000000     0.490520000000    -0.436306   
O212     O      0.060080000000     0.497910000000     0.965590000000    -0.443671   
O213     O      0.994530000000     0.436990000000     0.959890000000    -0.436162   
O214     O      0.937670000000     0.501990000000     0.485470000000    -0.431407   
O215     O      0.963840000000     0.484690000000     0.928670000000    -0.4362     
O216     O      0.967380000000     0.455130000000     0.516850000000    -0.408942   
O217     O      0.697920000000     0.879340000000     0.600010000000    -0.402778   
O218     O      0.701400000000     0.849820000000     0.688260000000    -0.409513   
O219     O      0.727870000000     0.832880000000     0.631510000000    -0.391067   
O220     O      0.670560000000     0.897230000000     0.656900000000    -0.436554   
O221     O      0.605080000000     0.836150000000     0.651440000000    -0.443772   
O222     O      0.662640000000     0.771700000000     0.626070000000    -0.441633   
O223     O      0.635120000000     0.789630000000     0.683020000000    -0.445444   
O224     O      0.631760000000     0.819060000000     0.594620000000    -0.447195   
O225     O      0.877330000000     0.698660000000     0.599830000000    -0.443054   
O226     O      0.848620000000     0.702770000000     0.511380000000    -0.435651   
O227     O      0.831030000000     0.728740000000     0.568160000000    -0.442042   
O228     O      0.895890000000     0.671920000000     0.542910000000    -0.401377   
O229     O      0.834900000000     0.606370000000     0.547810000000    -0.439161   
O230     O      0.769900000000     0.663260000000     0.573380000000    -0.433174   
O231     O      0.788360000000     0.636460000000     0.516350000000    -0.434      
O232     O      0.817260000000     0.632220000000     0.604680000000    -0.408681   
O233     O      0.543790000000     0.032470000000     0.765780000000    -0.432007   
O234     O      0.514400000000     0.035290000000     0.677270000000    -0.440268   
O235     O      0.497000000000     0.061820000000     0.733920000000    -0.407562   
O236     O      0.562210000000     0.005270000000     0.709000000000    -0.39909    
O237     O      0.501430000000     0.939610000000     0.714150000000    -0.432385   
O238     O      0.436220000000     0.996350000000     0.739710000000    -0.443729   
O239     O      0.454310000000     0.969020000000     0.682760000000    -0.409931   
O240     O      0.484080000000     0.965830000000     0.770960000000    -0.411337   
O241     O      0.296130000000     0.147350000000     0.510190000000    -0.438671   
O242     O      0.298990000000     0.179600000000     0.598680000000    -0.43688    
O243     O      0.326480000000     0.225300000000     0.541880000000    -0.400007   
O244     O      0.269410000000     0.103440000000     0.566870000000    -0.407656   
O245     O      0.334780000000     0.107870000000     0.572690000000    -0.444737   
O246     O      0.391940000000     0.229730000000     0.547130000000    -0.431278   
O247     O      0.365500000000     0.186190000000     0.603920000000    -0.410553   
O248     O      0.362260000000     0.153200000000     0.515740000000    -0.41022    
O249     O      0.484960000000     0.520020000000     0.521460000000    -0.447975   
O250     O      0.455540000000     0.487670000000     0.933050000000    -0.448813   
O251     O      0.436710000000     0.442110000000     0.489920000000    -0.435244   
O252     O      0.502890000000     0.563880000000     0.964710000000    -0.453101   
O253     O      0.563350000000     0.558450000000     0.959290000000    -0.400293   
O254     O      0.497270000000     0.436690000000     0.484740000000    -0.426447   
O255     O      0.515040000000     0.480330000000     0.927940000000    -0.406246   
O256     O      0.544650000000     0.513070000000     0.516210000000    -0.404295   
O257     O      0.150120000000     0.852940000000     0.687320000000    -0.438466   
O258     O      0.121500000000     0.819160000000     0.599120000000    -0.435449   
O259     O      0.103680000000     0.774350000000     0.656280000000    -0.443049   
O260     O      0.167120000000     0.895940000000     0.630340000000    -0.440582   
O261     O      0.228820000000     0.892510000000     0.625560000000    -0.43805    
O262     O      0.165170000000     0.770740000000     0.651220000000    -0.40583    
O263     O      0.182340000000     0.814080000000     0.594230000000    -0.437161   
O264     O      0.210720000000     0.847400000000     0.682670000000    -0.435074   
O265     O      0.967800000000     0.514650000000     0.766840000000    -0.398725   
O266     O      0.963590000000     0.481160000000     0.678690000000    -0.434934   
O267     O      0.937060000000     0.437980000000     0.735550000000    -0.395726   
O268     O      0.995260000000     0.559640000000     0.709810000000    -0.435056   
O269     O      0.060410000000     0.563310000000     0.715380000000    -0.441181   
O270     O      0.002030000000     0.441350000000     0.740710000000    -0.44328    
O271     O      0.029750000000     0.486820000000     0.683750000000    -0.442361   
O272     O      0.033570000000     0.519610000000     0.772200000000    -0.444141   
O273     O      0.786190000000     0.153850000000     0.766680000000    -0.399314   
O274     O      0.815770000000     0.186390000000     0.855030000000    -0.407668   
O275     O      0.832970000000     0.230110000000     0.798340000000    -0.424424   
O276     O      0.767960000000     0.108340000000     0.823520000000    -0.40024    
O277     O      0.828740000000     0.103520000000     0.818030000000    -0.449617   
O278     O      0.893960000000     0.225530000000     0.792850000000    -0.437343   
O279     O      0.875690000000     0.179830000000     0.849700000000    -0.44881    
O280     O      0.846190000000     0.147460000000     0.761300000000    -0.44635    
O281     O      0.634870000000     0.846560000000     0.933220000000    -0.437754   
O282     O      0.630680000000     0.813680000000     0.844790000000    -0.439134   
O283     O      0.605300000000     0.770150000000     0.901680000000    -0.445149   
O284     O      0.661080000000     0.891830000000     0.876190000000    -0.432313   
O285     O      0.726950000000     0.896900000000     0.880960000000    -0.442327   
O286     O      0.671150000000     0.775250000000     0.906690000000    -0.435366   
O287     O      0.697280000000     0.820340000000     0.849620000000    -0.438715   
O288     O      0.701650000000     0.853580000000     0.937900000000    -0.437304   


