data_structure

_audit_creation_method RASPA-1.0
_audit_creation_date 2023-5-23
_audit_author_name 'Poobodin Mano'

_cell_length_a    42.5869
_cell_length_b    42.5865
_cell_length_c    31.8626
_cell_angle_alpha 89.9995
_cell_angle_beta  90.001
_cell_angle_gamma 119.999
_cell_volume      50045.4

_symmetry_cell_setting          triclinic
_symmetry_space_group_name_Hall 'P 1'
_symmetry_space_group_name_H-M  'P 1'
_symmetry_Int_Tables_number     1

_symmetry_equiv_pos_as_xyz 'x,y,z'

loop_
_atom_site_label
_atom_site_type_symbol
_atom_site_fract_x
_atom_site_fract_y
_atom_site_fract_z
_atom_site_charge
C1       C      0.007820000000     0.005250000000     0.259630000000     0.418465   
C2       C      0.007820000000     0.505230000000     0.419870000000     0.418786   
C3       C      0.067840000000     0.065260000000     0.339760000000     0.433189   
C4       C      0.447800000000     0.445220000000     0.339750000000     0.432689   
C5       C      0.447800000000     0.195220000000     0.339770000000     0.432702   
C6       C      0.067840000000     0.315260000000     0.339740000000     0.43319    
C7       C      0.507830000000     0.255250000000     0.419870000000     0.433763   
C8       C      0.507810000000     0.255230000000     0.259640000000     0.433614   
C9       C      0.317840000000     0.065260000000     0.339770000000     0.432724   
C10      C      0.197800000000     0.445220000000     0.339740000000     0.432627   
C11      C      0.257830000000     0.005250000000     0.259630000000     0.432968   
C12      C      0.257810000000     0.005230000000     0.419870000000     0.433264   
C13      C      0.197800000000     0.195220000000     0.339760000000     0.432613   
C14      C      0.317840000000     0.315260000000     0.339750000000     0.432692   
C15      C      0.257820000000     0.255230000000     0.259640000000     0.433396   
C16      C      0.257820000000     0.255250000000     0.419870000000     0.433732   
C17      C      0.067850000000     0.005270000000     0.006420000000     0.432374   
C18      C      0.447820000000     0.005270000000     0.006410000000     0.431805   
C19      C      0.507840000000     0.005260000000     0.926300000000     0.432878   
C20      C      0.507830000000     0.005260000000     0.086530000000     0.433072   
C21      C      0.067820000000     0.255210000000     0.006430000000     0.43269    
C22      C      0.447780000000     0.255210000000     0.006410000000     0.432144   
C23      C      0.507800000000     0.255210000000     0.086540000000     0.433219   
C24      C      0.507810000000     0.255210000000     0.926300000000     0.433127   
C25      C      0.317850000000     0.005270000000     0.006410000000     0.431595   
C26      C      0.197820000000     0.005270000000     0.006430000000     0.431499   
C27      C      0.257820000000     0.005270000000     0.926300000000     0.432877   
C28      C      0.257840000000     0.005270000000     0.086530000000     0.432811   
C29      C      0.197780000000     0.255210000000     0.006430000000     0.432048   
C30      C      0.317820000000     0.255210000000     0.006410000000     0.432217   
C31      C      0.257800000000     0.255210000000     0.926300000000     0.43335    
C32      C      0.257810000000     0.255210000000     0.086540000000     0.433481   
C33      C      0.507840000000     0.005240000000     0.753200000000     0.433033   
C34      C      0.507840000000     0.505230000000     0.592970000000     0.433748   
C35      C      0.507840000000     0.065250000000     0.673070000000     0.432623   
C36      C      0.507840000000     0.445220000000     0.673090000000     0.43256    
C37      C      0.007840000000     0.195220000000     0.673070000000     0.418112   
C38      C      0.007840000000     0.315250000000     0.673100000000     0.418148   
C39      C      0.007830000000     0.255220000000     0.753200000000     0.419279   
C40      C      0.007840000000     0.255250000000     0.592970000000     0.419006   
C41      C      0.257800000000     0.065260000000     0.673070000000     0.432706   
C42      C      0.257800000000     0.445220000000     0.673100000000     0.43259    
C43      C      0.257800000000     0.005250000000     0.753200000000     0.433019   
C44      C      0.257800000000     0.005230000000     0.592970000000     0.43298    
C45      C      0.257800000000     0.195220000000     0.673080000000     0.432625   
C46      C      0.257800000000     0.315260000000     0.673100000000     0.4327     
C47      C      0.257810000000     0.255250000000     0.592970000000     0.43368    
C48      C      0.257790000000     0.255230000000     0.753200000000     0.433777   
C49      C      0.289770000000     0.412620000000     0.673210000000     0.0314683  
C50      C      0.225820000000     0.380650000000     0.672990000000     0.0313633  
C51      C      0.225820000000     0.347860000000     0.673210000000     0.0313239  
C52      C      0.289780000000     0.379840000000     0.672990000000     0.0313013  
C53      C      0.289780000000     0.162620000000     0.673180000000     0.0313537  
C54      C      0.225820000000     0.130650000000     0.672960000000     0.0313509  
C55      C      0.225820000000     0.097860000000     0.673180000000     0.031326   
C56      C      0.289780000000     0.129840000000     0.672960000000     0.0313473  
C57      C      0.475870000000     0.380640000000     0.672990000000     0.0314255  
C58      C      0.039820000000     0.412620000000     0.673210000000     0.0293376  
C59      C      0.039810000000     0.379830000000     0.672990000000     0.0294626  
C60      C      0.475860000000     0.347850000000     0.673210000000     0.0313088  
C61      C      0.475860000000     0.097850000000     0.673180000000     0.0313535  
C62      C      0.039820000000     0.129830000000     0.672960000000     0.0293852  
C63      C      0.039820000000     0.162620000000     0.673180000000     0.0293888  
C64      C      0.475860000000     0.130640000000     0.672960000000     0.0313327  
C65      C      0.285160000000     0.283280000000     0.861660000000     0.0329043  
C66      C      0.230420000000     0.227160000000     0.861650000000     0.032811   
C67      C      0.229730000000     0.227850000000     0.817850000000     0.03274    
C68      C      0.285850000000     0.282590000000     0.817850000000     0.0328608  
C69      C      0.285180000000     0.033320000000     0.861650000000     0.0328315  
C70      C      0.230440000000     0.477200000000     0.861660000000     0.0327756  
C71      C      0.229750000000     0.477890000000     0.817850000000     0.0328077  
C72      C      0.285870000000     0.032630000000     0.817840000000     0.0327609  
C73      C      0.383210000000     0.223240000000     0.006520000000     0.0310889  
C74      C      0.415180000000     0.287190000000     0.006300000000     0.0310307  
C75      C      0.382400000000     0.287190000000     0.006520000000     0.0310351  
C76      C      0.350420000000     0.223240000000     0.006300000000     0.0311031  
C77      C      0.100420000000     0.223240000000     0.006320000000     0.0309037  
C78      C      0.132400000000     0.287190000000     0.006540000000     0.030842   
C79      C      0.165180000000     0.287190000000     0.006320000000     0.0309569  
C80      C      0.133210000000     0.223240000000     0.006540000000     0.030746   
C81      C      0.480450000000     0.227150000000     0.861650000000     0.0328447  
C82      C      0.035190000000     0.283270000000     0.861660000000     0.0307288  
C83      C      0.035890000000     0.282590000000     0.817860000000     0.0307271  
C84      C      0.479770000000     0.227850000000     0.817850000000     0.0328351  
C85      C      0.415220000000     0.037240000000     0.006290000000     0.0310505  
C86      C      0.383240000000     0.473290000000     0.006510000000     0.0310646  
C87      C      0.350450000000     0.473290000000     0.006300000000     0.031041   
C88      C      0.382430000000     0.037240000000     0.006510000000     0.0309935  
C89      C      0.100450000000     0.473290000000     0.006320000000     0.0308522  
C90      C      0.132430000000     0.037240000000     0.006540000000     0.0308232  
C91      C      0.165220000000     0.037240000000     0.006320000000     0.0309507  
C92      C      0.133240000000     0.473290000000     0.006540000000     0.0307057  
C93      C      0.535210000000     0.033320000000     0.861650000000     0.0327774  
C94      C      0.980470000000     0.477200000000     0.861660000000     0.0415875  
C95      C      0.979780000000     0.477880000000     0.817850000000     0.0414402  
C96      C      0.535900000000     0.032620000000     0.817850000000     0.032749   
C97      C      0.285180000000     0.254560000000     0.484520000000     0.0327186  
C98      C      0.230450000000     0.255940000000     0.484510000000     0.0326436  
C99      C      0.229750000000     0.254560000000     0.528320000000     0.032552   
C100     C      0.285870000000     0.255940000000     0.528330000000     0.0325929  
C101     C      0.257130000000     0.282600000000     0.194980000000     0.0325966  
C102     C      0.258510000000     0.227850000000     0.194990000000     0.0325172  
C103     C      0.257120000000     0.227160000000     0.151190000000     0.0327005  
C104     C      0.258500000000     0.283280000000     0.151180000000     0.0326893  
C105     C      0.230430000000     0.505920000000     0.484510000000     0.0326303  
C106     C      0.285170000000     0.004540000000     0.484520000000     0.0325514  
C107     C      0.285860000000     0.005920000000     0.528320000000     0.0325665  
C108     C      0.229740000000     0.504540000000     0.528320000000     0.0325604  
C109     C      0.257150000000     0.032630000000     0.194990000000     0.0325994  
C110     C      0.258530000000     0.477890000000     0.194980000000     0.032608   
C111     C      0.257160000000     0.477210000000     0.151180000000     0.0326541  
C112     C      0.258540000000     0.033330000000     0.151180000000     0.0325333  
C113     C      0.035210000000     0.254560000000     0.484510000000     0.0304855  
C114     C      0.480470000000     0.255940000000     0.484520000000     0.0326303  
C115     C      0.479780000000     0.254560000000     0.528320000000     0.0326191  
C116     C      0.035900000000     0.255940000000     0.528320000000     0.0305819  
C117     C      0.415200000000     0.130650000000     0.339880000000     0.0313999  
C118     C      0.383230000000     0.162620000000     0.339660000000     0.031434   
C119     C      0.350440000000     0.129840000000     0.339880000000     0.0312651  
C120     C      0.382410000000     0.097860000000     0.339660000000     0.0313576  
C121     C      0.100440000000     0.379830000000     0.339840000000     0.031157   
C122     C      0.132420000000     0.347860000000     0.339620000000     0.0311253  
C123     C      0.165200000000     0.380640000000     0.339840000000     0.0312418  
C124     C      0.133230000000     0.412620000000     0.339620000000     0.0310529  
C125     C      0.507110000000     0.282590000000     0.194990000000     0.032689   
C126     C      0.008490000000     0.227850000000     0.194990000000     0.031269   
C127     C      0.007100000000     0.227150000000     0.151190000000     0.0304647  
C128     C      0.508480000000     0.283280000000     0.151180000000     0.0325616  
C129     C      0.035200000000     0.504540000000     0.484510000000     0.0304716  
C130     C      0.480460000000     0.005920000000     0.484520000000     0.0325669  
C131     C      0.479770000000     0.004540000000     0.528320000000     0.0325517  
C132     C      0.035890000000     0.505920000000     0.528320000000     0.0305843  
C133     C      0.383230000000     0.412620000000     0.339640000000     0.0314349  
C134     C      0.415200000000     0.380640000000     0.339860000000     0.0313382  
C135     C      0.382420000000     0.347860000000     0.339640000000     0.0312892  
C136     C      0.350440000000     0.379840000000     0.339850000000     0.0312728  
C137     C      0.100440000000     0.129840000000     0.339870000000     0.0310569  
C138     C      0.132420000000     0.097860000000     0.339650000000     0.0310599  
C139     C      0.165200000000     0.130650000000     0.339870000000     0.0313525  
C140     C      0.133230000000     0.162620000000     0.339650000000     0.0311017  
C141     C      0.007140000000     0.032630000000     0.194990000000     0.0303916  
C142     C      0.508520000000     0.477890000000     0.194980000000     0.0326147  
C143     C      0.507140000000     0.477200000000     0.151180000000     0.0326377  
C144     C      0.008520000000     0.033320000000     0.151180000000     0.0311963  
C145     C      0.007820000000     0.505250000000     0.259640000000     0.419059   
C146     C      0.007820000000     0.005230000000     0.419870000000     0.418629   
C147     C      0.067840000000     0.565260000000     0.339760000000     0.433166   
C148     C      0.447800000000     0.945220000000     0.339740000000     0.432701   
C149     C      0.447800000000     0.695220000000     0.339770000000     0.432681   
C150     C      0.067840000000     0.815260000000     0.339730000000     0.43319    
C151     C      0.507830000000     0.755250000000     0.419870000000     0.433534   
C152     C      0.507810000000     0.755230000000     0.259630000000     0.433558   
C153     C      0.317840000000     0.565260000000     0.339770000000     0.432709   
C154     C      0.197800000000     0.945220000000     0.339730000000     0.432628   
C155     C      0.257830000000     0.505250000000     0.259640000000     0.433622   
C156     C      0.257810000000     0.505230000000     0.419870000000     0.433711   
C157     C      0.197800000000     0.695220000000     0.339750000000     0.432627   
C158     C      0.317840000000     0.815260000000     0.339740000000     0.432701   
C159     C      0.257820000000     0.755230000000     0.259630000000     0.43329    
C160     C      0.257820000000     0.755250000000     0.419870000000     0.433772   
C161     C      0.067850000000     0.505270000000     0.006430000000     0.432906   
C162     C      0.447810000000     0.505270000000     0.006410000000     0.432245   
C163     C      0.507840000000     0.505260000000     0.926300000000     0.433409   
C164     C      0.507830000000     0.505260000000     0.086530000000     0.433577   
C165     C      0.067820000000     0.755210000000     0.006430000000     0.432685   
C166     C      0.447780000000     0.755210000000     0.006400000000     0.432151   
C167     C      0.507790000000     0.755210000000     0.086530000000     0.433272   
C168     C      0.507810000000     0.755210000000     0.926300000000     0.433229   
C169     C      0.317850000000     0.505270000000     0.006410000000     0.432126   
C170     C      0.197810000000     0.505270000000     0.006430000000     0.431933   
C171     C      0.257820000000     0.505270000000     0.926300000000     0.433407   
C172     C      0.257840000000     0.505270000000     0.086530000000     0.433347   
C173     C      0.197780000000     0.755210000000     0.006420000000     0.432029   
C174     C      0.317820000000     0.755210000000     0.006410000000     0.4322     
C175     C      0.257800000000     0.755210000000     0.926300000000     0.433451   
C176     C      0.257810000000     0.755220000000     0.086530000000     0.433531   
C177     C      0.507840000000     0.505240000000     0.753200000000     0.43358    
C178     C      0.507840000000     0.005230000000     0.592970000000     0.433235   
C179     C      0.507840000000     0.565260000000     0.673070000000     0.432467   
C180     C      0.507840000000     0.945210000000     0.673090000000     0.432486   
C181     C      0.007840000000     0.695220000000     0.673070000000     0.41814    
C182     C      0.007840000000     0.815250000000     0.673090000000     0.418164   
C183     C      0.007830000000     0.755220000000     0.753200000000     0.419179   
C184     C      0.007840000000     0.755250000000     0.592960000000     0.41894    
C185     C      0.257800000000     0.565260000000     0.673070000000     0.432534   
C186     C      0.257800000000     0.945220000000     0.673090000000     0.432547   
C187     C      0.257800000000     0.505260000000     0.753200000000     0.433802   
C188     C      0.257800000000     0.505230000000     0.592970000000     0.43349    
C189     C      0.257800000000     0.695220000000     0.673070000000     0.432602   
C190     C      0.257800000000     0.815260000000     0.673090000000     0.432703   
C191     C      0.257810000000     0.755250000000     0.592960000000     0.433745   
C192     C      0.257790000000     0.755230000000     0.753200000000     0.433696   
C193     C      0.289780000000     0.912620000000     0.673210000000     0.0313774  
C194     C      0.225820000000     0.880650000000     0.672990000000     0.0313728  
C195     C      0.225820000000     0.847860000000     0.673200000000     0.0313417  
C196     C      0.289780000000     0.879840000000     0.672990000000     0.0313751  
C197     C      0.289780000000     0.662620000000     0.673180000000     0.0313035  
C198     C      0.225820000000     0.630650000000     0.672960000000     0.0313536  
C199     C      0.225820000000     0.597860000000     0.673170000000     0.0313331  
C200     C      0.289770000000     0.629840000000     0.672960000000     0.0314325  
C201     C      0.475860000000     0.880640000000     0.672990000000     0.0313902  
C202     C      0.039810000000     0.912620000000     0.673210000000     0.0295296  
C203     C      0.039820000000     0.879830000000     0.672990000000     0.0293521  
C204     C      0.475860000000     0.847850000000     0.673200000000     0.0313502  
C205     C      0.475860000000     0.597850000000     0.673180000000     0.0313589  
C206     C      0.039820000000     0.629830000000     0.672960000000     0.0293957  
C207     C      0.039820000000     0.662620000000     0.673180000000     0.0293876  
C208     C      0.475860000000     0.630640000000     0.672960000000     0.0313514  
C209     C      0.285160000000     0.783280000000     0.861650000000     0.0328487  
C210     C      0.230420000000     0.727160000000     0.861650000000     0.0328193  
C211     C      0.229730000000     0.727860000000     0.817840000000     0.0327994  
C212     C      0.285850000000     0.782590000000     0.817850000000     0.0328779  
C213     C      0.285180000000     0.533320000000     0.861650000000     0.0329469  
C214     C      0.230440000000     0.977200000000     0.861660000000     0.0331462  
C215     C      0.229750000000     0.977890000000     0.817850000000     0.0330944  
C216     C      0.285870000000     0.532630000000     0.817850000000     0.0327971  
C217     C      0.383210000000     0.723240000000     0.006510000000     0.0310858  
C218     C      0.415180000000     0.787190000000     0.006290000000     0.03103    
C219     C      0.382400000000     0.787190000000     0.006510000000     0.031033   
C220     C      0.350420000000     0.723240000000     0.006290000000     0.0311012  
C221     C      0.100420000000     0.723240000000     0.006320000000     0.0309003  
C222     C      0.132400000000     0.787190000000     0.006540000000     0.0308406  
C223     C      0.165180000000     0.787190000000     0.006320000000     0.0309543  
C224     C      0.133210000000     0.723240000000     0.006540000000     0.0307435  
C225     C      0.480450000000     0.727150000000     0.861650000000     0.0328468  
C226     C      0.035190000000     0.783270000000     0.861660000000     0.0307108  
C227     C      0.035890000000     0.782580000000     0.817850000000     0.0308172  
C228     C      0.479770000000     0.727850000000     0.817840000000     0.0328546  
C229     C      0.415220000000     0.537240000000     0.006300000000     0.031137   
C230     C      0.383240000000     0.973290000000     0.006510000000     0.0313695  
C231     C      0.350450000000     0.973290000000     0.006290000000     0.0313664  
C232     C      0.382430000000     0.537240000000     0.006510000000     0.031059   
C233     C      0.100450000000     0.973290000000     0.006320000000     0.03117    
C234     C      0.132430000000     0.537240000000     0.006540000000     0.0308923  
C235     C      0.165210000000     0.537240000000     0.006320000000     0.0309993  
C236     C      0.133240000000     0.973290000000     0.006540000000     0.031013   
C237     C      0.535210000000     0.533320000000     0.861650000000     0.0328657  
C238     C      0.980470000000     0.977200000000     0.861650000000     0.0417935  
C239     C      0.979790000000     0.977880000000     0.817850000000     0.0417524  
C240     C      0.535900000000     0.532620000000     0.817850000000     0.0328217  
C241     C      0.285190000000     0.754560000000     0.484520000000     0.0325974  
C242     C      0.230450000000     0.755940000000     0.484510000000     0.0326346  
C243     C      0.229750000000     0.754560000000     0.528310000000     0.0325592  
C244     C      0.285870000000     0.755940000000     0.528320000000     0.0326679  
C245     C      0.257130000000     0.782600000000     0.194980000000     0.0326     
C246     C      0.258510000000     0.727860000000     0.194990000000     0.0326404  
C247     C      0.257120000000     0.727160000000     0.151180000000     0.0326531  
C248     C      0.258500000000     0.783280000000     0.151180000000     0.0326563  
C249     C      0.230430000000     0.005920000000     0.484510000000     0.0325709  
C250     C      0.285170000000     0.504540000000     0.484520000000     0.0326328  
C251     C      0.285860000000     0.505920000000     0.528320000000     0.0326156  
C252     C      0.229740000000     0.004540000000     0.528320000000     0.0324995  
C253     C      0.257150000000     0.532630000000     0.194990000000     0.0326407  
C254     C      0.258530000000     0.977890000000     0.194980000000     0.0329477  
C255     C      0.257160000000     0.977210000000     0.151180000000     0.0329674  
C256     C      0.258530000000     0.533320000000     0.151180000000     0.0326594  
C257     C      0.035210000000     0.754560000000     0.484510000000     0.0304655  
C258     C      0.480470000000     0.755950000000     0.484510000000     0.0325851  
C259     C      0.479780000000     0.754560000000     0.528320000000     0.0326652  
C260     C      0.035900000000     0.755940000000     0.528320000000     0.0306074  
C261     C      0.415200000000     0.630650000000     0.339880000000     0.0313834  
C262     C      0.383230000000     0.662620000000     0.339660000000     0.031431   
C263     C      0.350440000000     0.629840000000     0.339880000000     0.0312717  
C264     C      0.382410000000     0.597860000000     0.339660000000     0.0313744  
C265     C      0.100440000000     0.879830000000     0.339830000000     0.0311979  
C266     C      0.132410000000     0.847860000000     0.339620000000     0.0311651  
C267     C      0.165200000000     0.880650000000     0.339840000000     0.0313311  
C268     C      0.133230000000     0.912620000000     0.339620000000     0.0310647  
C269     C      0.507110000000     0.782590000000     0.194980000000     0.0326367  
C270     C      0.008490000000     0.727850000000     0.194990000000     0.031228   
C271     C      0.007100000000     0.727160000000     0.151180000000     0.030563   
C272     C      0.508480000000     0.783270000000     0.151180000000     0.0326406  
C273     C      0.035200000000     0.004540000000     0.484510000000     0.0303933  
C274     C      0.480460000000     0.505920000000     0.484520000000     0.0326086  
C275     C      0.479770000000     0.504540000000     0.528320000000     0.0326488  
C276     C      0.035890000000     0.005920000000     0.528320000000     0.030549   
C277     C      0.383230000000     0.912620000000     0.339630000000     0.0314585  
C278     C      0.415200000000     0.880650000000     0.339850000000     0.0314168  
C279     C      0.382410000000     0.847860000000     0.339630000000     0.0313557  
C280     C      0.350440000000     0.879840000000     0.339850000000     0.0312914  
C281     C      0.100440000000     0.629840000000     0.339870000000     0.0310601  
C282     C      0.132420000000     0.597860000000     0.339650000000     0.0310631  
C283     C      0.165200000000     0.630650000000     0.339870000000     0.0313619  
C284     C      0.133230000000     0.662620000000     0.339650000000     0.0311011  
C285     C      0.007130000000     0.532630000000     0.194990000000     0.0304741  
C286     C      0.508520000000     0.977890000000     0.194980000000     0.0329798  
C287     C      0.507140000000     0.977200000000     0.151180000000     0.0329549  
C288     C      0.008520000000     0.533320000000     0.151190000000     0.0312347  
C289     C      0.507820000000     0.005250000000     0.259630000000     0.432936   
C290     C      0.507820000000     0.505230000000     0.419870000000     0.43349    
C291     C      0.567840000000     0.065260000000     0.339760000000     0.432664   
C292     C      0.947800000000     0.445220000000     0.339750000000     0.432788   
C293     C      0.947800000000     0.195220000000     0.339770000000     0.432806   
C294     C      0.567840000000     0.315260000000     0.339740000000     0.432663   
C295     C      0.007830000000     0.255250000000     0.419870000000     0.419066   
C296     C      0.007810000000     0.255230000000     0.259640000000     0.419292   
C297     C      0.817840000000     0.065260000000     0.339770000000     0.43289    
C298     C      0.697800000000     0.445220000000     0.339740000000     0.432654   
C299     C      0.757830000000     0.005250000000     0.259630000000     0.433284   
C300     C      0.757810000000     0.005230000000     0.419870000000     0.433304   
C301     C      0.697800000000     0.195220000000     0.339760000000     0.432643   
C302     C      0.817840000000     0.315260000000     0.339750000000     0.432859   
C303     C      0.757820000000     0.255230000000     0.259640000000     0.433484   
C304     C      0.757820000000     0.255250000000     0.419870000000     0.433754   
C305     C      0.567860000000     0.005270000000     0.006420000000     0.431727   
C306     C      0.947810000000     0.005270000000     0.006410000000     0.431778   
C307     C      0.007840000000     0.005260000000     0.926300000000     0.418281   
C308     C      0.007830000000     0.005270000000     0.086530000000     0.418638   
C309     C      0.567820000000     0.255210000000     0.006430000000     0.432159   
C310     C      0.947780000000     0.255210000000     0.006410000000     0.432246   
C311     C      0.007790000000     0.255210000000     0.086540000000     0.418692   
C312     C      0.007810000000     0.255210000000     0.926300000000     0.418445   
C313     C      0.817860000000     0.005270000000     0.006410000000     0.431662   
C314     C      0.697820000000     0.005270000000     0.006430000000     0.43159    
C315     C      0.757820000000     0.005270000000     0.926300000000     0.4329     
C316     C      0.757850000000     0.005270000000     0.086530000000     0.432895   
C317     C      0.697780000000     0.255210000000     0.006430000000     0.432071   
C318     C      0.817820000000     0.255210000000     0.006410000000     0.432372   
C319     C      0.757800000000     0.255210000000     0.926300000000     0.433428   
C320     C      0.757810000000     0.255210000000     0.086540000000     0.433564   
C321     C      0.007840000000     0.005240000000     0.753200000000     0.418608   
C322     C      0.007830000000     0.505230000000     0.592970000000     0.419218   
C323     C      0.007840000000     0.065250000000     0.673070000000     0.418249   
C324     C      0.007840000000     0.445220000000     0.673090000000     0.418077   
C325     C      0.507840000000     0.195220000000     0.673070000000     0.432632   
C326     C      0.507840000000     0.315250000000     0.673100000000     0.432603   
C327     C      0.507830000000     0.255220000000     0.753200000000     0.433783   
C328     C      0.507840000000     0.255250000000     0.592970000000     0.433503   
C329     C      0.757800000000     0.065260000000     0.673070000000     0.432688   
C330     C      0.757800000000     0.445220000000     0.673100000000     0.432605   
C331     C      0.757800000000     0.005250000000     0.753200000000     0.433027   
C332     C      0.757800000000     0.005230000000     0.592970000000     0.432992   
C333     C      0.757800000000     0.195220000000     0.673080000000     0.432614   
C334     C      0.757800000000     0.315260000000     0.673100000000     0.432723   
C335     C      0.757800000000     0.255250000000     0.592970000000     0.43369    
C336     C      0.757800000000     0.255230000000     0.753200000000     0.43378    
C337     C      0.789770000000     0.412620000000     0.673210000000     0.0314494  
C338     C      0.725820000000     0.380650000000     0.672990000000     0.0313606  
C339     C      0.725820000000     0.347860000000     0.673210000000     0.0313345  
C340     C      0.789770000000     0.379840000000     0.672990000000     0.031408   
C341     C      0.789770000000     0.162620000000     0.673180000000     0.0314953  
C342     C      0.725820000000     0.130650000000     0.672960000000     0.0313606  
C343     C      0.725820000000     0.097860000000     0.673180000000     0.0313225  
C344     C      0.789780000000     0.129840000000     0.672960000000     0.0313201  
C345     C      0.975860000000     0.380640000000     0.672990000000     0.0399552  
C346     C      0.539820000000     0.412620000000     0.673210000000     0.0313444  
C347     C      0.539820000000     0.379830000000     0.672990000000     0.0313342  
C348     C      0.975860000000     0.347850000000     0.673210000000     0.0399723  
C349     C      0.975860000000     0.097850000000     0.673180000000     0.0399516  
C350     C      0.539810000000     0.129830000000     0.672960000000     0.0314102  
C351     C      0.539820000000     0.162620000000     0.673180000000     0.0312998  
C352     C      0.975860000000     0.130640000000     0.672960000000     0.0399382  
C353     C      0.785160000000     0.283280000000     0.861660000000     0.0329963  
C354     C      0.730430000000     0.227160000000     0.861650000000     0.0329201  
C355     C      0.729730000000     0.227850000000     0.817850000000     0.0327701  
C356     C      0.785850000000     0.282590000000     0.817850000000     0.0329348  
C357     C      0.785180000000     0.033320000000     0.861650000000     0.0329099  
C358     C      0.730440000000     0.477200000000     0.861660000000     0.0328336  
C359     C      0.729750000000     0.477890000000     0.817850000000     0.032852   
C360     C      0.785870000000     0.032630000000     0.817840000000     0.0328474  
C361     C      0.883210000000     0.223240000000     0.006520000000     0.0317093  
C362     C      0.915180000000     0.287190000000     0.006300000000     0.0317571  
C363     C      0.882400000000     0.287190000000     0.006520000000     0.0316412  
C364     C      0.850420000000     0.223240000000     0.006300000000     0.0313617  
C365     C      0.600420000000     0.223240000000     0.006320000000     0.0310695  
C366     C      0.632400000000     0.287190000000     0.006540000000     0.0310063  
C367     C      0.665180000000     0.287190000000     0.006320000000     0.0310017  
C368     C      0.633210000000     0.223240000000     0.006540000000     0.0310478  
C369     C      0.980450000000     0.227150000000     0.861650000000     0.0415136  
C370     C      0.535190000000     0.283270000000     0.861660000000     0.0329125  
C371     C      0.535890000000     0.282590000000     0.817860000000     0.0327652  
C372     C      0.979770000000     0.227850000000     0.817850000000     0.041469   
C373     C      0.915220000000     0.037240000000     0.006290000000     0.03178    
C374     C      0.883240000000     0.473290000000     0.006510000000     0.0316813  
C375     C      0.850450000000     0.473290000000     0.006300000000     0.0313016  
C376     C      0.882430000000     0.037240000000     0.006510000000     0.0316116  
C377     C      0.600450000000     0.473290000000     0.006320000000     0.0310244  
C378     C      0.632430000000     0.037240000000     0.006540000000     0.0309976  
C379     C      0.665220000000     0.037240000000     0.006320000000     0.0309986  
C380     C      0.633240000000     0.473290000000     0.006540000000     0.0310098  
C381     C      0.035210000000     0.033320000000     0.861650000000     0.0306061  
C382     C      0.480470000000     0.477200000000     0.861660000000     0.0329133  
C383     C      0.479780000000     0.477880000000     0.817850000000     0.0327925  
C384     C      0.035900000000     0.032620000000     0.817850000000     0.0307371  
C385     C      0.785190000000     0.254560000000     0.484520000000     0.0326826  
C386     C      0.730450000000     0.255940000000     0.484510000000     0.0326973  
C387     C      0.729750000000     0.254560000000     0.528320000000     0.0326     
C388     C      0.785870000000     0.255940000000     0.528330000000     0.0327548  
C389     C      0.757130000000     0.282600000000     0.194980000000     0.0327644  
C390     C      0.758510000000     0.227850000000     0.194990000000     0.0327093  
C391     C      0.757120000000     0.227160000000     0.151190000000     0.0328676  
C392     C      0.758500000000     0.283280000000     0.151180000000     0.0328806  
C393     C      0.730430000000     0.505920000000     0.484510000000     0.0326557  
C394     C      0.785170000000     0.004540000000     0.484520000000     0.0326303  
C395     C      0.785860000000     0.005920000000     0.528320000000     0.0326518  
C396     C      0.729740000000     0.504540000000     0.528320000000     0.0326316  
C397     C      0.757160000000     0.032630000000     0.194990000000     0.0328235  
C398     C      0.758530000000     0.477890000000     0.194980000000     0.0328001  
C399     C      0.757160000000     0.477210000000     0.151180000000     0.0328215  
C400     C      0.758540000000     0.033330000000     0.151180000000     0.0327016  
C401     C      0.535210000000     0.254560000000     0.484510000000     0.0326552  
C402     C      0.980470000000     0.255940000000     0.484520000000     0.0413065  
C403     C      0.979780000000     0.254560000000     0.528320000000     0.0412544  
C404     C      0.535900000000     0.255940000000     0.528320000000     0.0326222  
C405     C      0.915200000000     0.130650000000     0.339880000000     0.0320997  
C406     C      0.883230000000     0.162620000000     0.339660000000     0.032053   
C407     C      0.850440000000     0.129840000000     0.339880000000     0.0315262  
C408     C      0.882410000000     0.097860000000     0.339660000000     0.031976   
C409     C      0.600440000000     0.379830000000     0.339840000000     0.0313327  
C410     C      0.632410000000     0.347860000000     0.339620000000     0.0313917  
C411     C      0.665200000000     0.380640000000     0.339840000000     0.0312206  
C412     C      0.633230000000     0.412620000000     0.339620000000     0.0313488  
C413     C      0.007110000000     0.282590000000     0.194990000000     0.0305678  
C414     C      0.508490000000     0.227850000000     0.194990000000     0.0326247  
C415     C      0.507100000000     0.227160000000     0.151190000000     0.0327069  
C416     C      0.008480000000     0.283280000000     0.151180000000     0.0311337  
C417     C      0.535200000000     0.504540000000     0.484510000000     0.0326558  
C418     C      0.980460000000     0.005920000000     0.484520000000     0.0412201  
C419     C      0.979770000000     0.004540000000     0.528320000000     0.0411542  
C420     C      0.535890000000     0.505920000000     0.528320000000     0.0325983  
C421     C      0.883230000000     0.412620000000     0.339640000000     0.0320477  
C422     C      0.915200000000     0.380640000000     0.339860000000     0.0320112  
C423     C      0.882410000000     0.347860000000     0.339640000000     0.0320094  
C424     C      0.850440000000     0.379840000000     0.339850000000     0.0315387  
C425     C      0.600440000000     0.129840000000     0.339870000000     0.0312253  
C426     C      0.632420000000     0.097860000000     0.339650000000     0.0312271  
C427     C      0.665200000000     0.130650000000     0.339870000000     0.0313991  
C428     C      0.633230000000     0.162620000000     0.339650000000     0.0314045  
C429     C      0.507140000000     0.032630000000     0.194990000000     0.0325187  
C430     C      0.008510000000     0.477890000000     0.194980000000     0.0312083  
C431     C      0.007140000000     0.477200000000     0.151180000000     0.0305009  
C432     C      0.508520000000     0.033320000000     0.151180000000     0.0326104  
C433     C      0.507820000000     0.505250000000     0.259640000000     0.433609   
C434     C      0.507820000000     0.005230000000     0.419870000000     0.433263   
C435     C      0.567840000000     0.565260000000     0.339760000000     0.432641   
C436     C      0.947800000000     0.945220000000     0.339740000000     0.432807   
C437     C      0.947800000000     0.695220000000     0.339770000000     0.432788   
C438     C      0.567840000000     0.815260000000     0.339730000000     0.432661   
C439     C      0.007840000000     0.755250000000     0.419870000000     0.419072   
C440     C      0.007810000000     0.755230000000     0.259630000000     0.419037   
C441     C      0.817840000000     0.565260000000     0.339770000000     0.432871   
C442     C      0.697800000000     0.945220000000     0.339730000000     0.432661   
C443     C      0.757830000000     0.505250000000     0.259640000000     0.433711   
C444     C      0.757810000000     0.505230000000     0.419870000000     0.433738   
C445     C      0.697800000000     0.695220000000     0.339750000000     0.432657   
C446     C      0.817840000000     0.815260000000     0.339740000000     0.432861   
C447     C      0.757820000000     0.755230000000     0.259630000000     0.433378   
C448     C      0.757820000000     0.755250000000     0.419870000000     0.433801   
C449     C      0.567850000000     0.505270000000     0.006430000000     0.432429   
C450     C      0.947810000000     0.505270000000     0.006410000000     0.432288   
C451     C      0.007840000000     0.505260000000     0.926300000000     0.418724   
C452     C      0.007830000000     0.505270000000     0.086530000000     0.419078   
C453     C      0.567820000000     0.755210000000     0.006430000000     0.432159   
C454     C      0.947780000000     0.755210000000     0.006400000000     0.43226    
C455     C      0.007800000000     0.755210000000     0.086530000000     0.418757   
C456     C      0.007810000000     0.755210000000     0.926300000000     0.418549   
C457     C      0.817850000000     0.505270000000     0.006410000000     0.432285   
C458     C      0.697810000000     0.505270000000     0.006430000000     0.431965   
C459     C      0.757820000000     0.505270000000     0.926300000000     0.433411   
C460     C      0.757840000000     0.505270000000     0.086530000000     0.433434   
C461     C      0.697780000000     0.755210000000     0.006420000000     0.432091   
C462     C      0.817820000000     0.755210000000     0.006410000000     0.432327   
C463     C      0.757800000000     0.755210000000     0.926300000000     0.433484   
C464     C      0.757810000000     0.755220000000     0.086530000000     0.433617   
C465     C      0.007840000000     0.505240000000     0.753200000000     0.419267   
C466     C      0.007830000000     0.005230000000     0.592970000000     0.418823   
C467     C      0.007840000000     0.565260000000     0.673070000000     0.418059   
C468     C      0.007840000000     0.945220000000     0.673090000000     0.418147   
C469     C      0.507840000000     0.695220000000     0.673070000000     0.432629   
C470     C      0.507840000000     0.815250000000     0.673090000000     0.4326     
C471     C      0.507830000000     0.755220000000     0.753200000000     0.433711   
C472     C      0.507840000000     0.755250000000     0.592960000000     0.433473   
C473     C      0.757800000000     0.565260000000     0.673070000000     0.432514   
C474     C      0.757800000000     0.945220000000     0.673090000000     0.432566   
C475     C      0.757800000000     0.505250000000     0.753200000000     0.433782   
C476     C      0.757800000000     0.505230000000     0.592970000000     0.433523   
C477     C      0.757800000000     0.695220000000     0.673070000000     0.432583   
C478     C      0.757800000000     0.815260000000     0.673090000000     0.43268    
C479     C      0.757810000000     0.755250000000     0.592960000000     0.433725   
C480     C      0.757800000000     0.755230000000     0.753200000000     0.433677   
C481     C      0.789780000000     0.912620000000     0.673210000000     0.0314081  
C482     C      0.725820000000     0.880650000000     0.672990000000     0.0313788  
C483     C      0.725820000000     0.847860000000     0.673200000000     0.0313456  
C484     C      0.789780000000     0.879840000000     0.672990000000     0.0314012  
C485     C      0.789770000000     0.662620000000     0.673180000000     0.031494   
C486     C      0.725820000000     0.630650000000     0.672960000000     0.0313712  
C487     C      0.725820000000     0.597860000000     0.673170000000     0.031328   
C488     C      0.789780000000     0.629840000000     0.672960000000     0.0313296  
C489     C      0.975860000000     0.880640000000     0.672990000000     0.0399516  
C490     C      0.539810000000     0.912620000000     0.673210000000     0.0314959  
C491     C      0.539820000000     0.879830000000     0.672990000000     0.0312999  
C492     C      0.975860000000     0.847850000000     0.673210000000     0.0399531  
C493     C      0.975860000000     0.597850000000     0.673180000000     0.0399855  
C494     C      0.539820000000     0.629830000000     0.672960000000     0.031297   
C495     C      0.539810000000     0.662620000000     0.673180000000     0.0314574  
C496     C      0.975860000000     0.630640000000     0.672960000000     0.0399489  
C497     C      0.785160000000     0.783280000000     0.861650000000     0.03297    
C498     C      0.730430000000     0.727160000000     0.861650000000     0.0328614  
C499     C      0.729740000000     0.727860000000     0.817840000000     0.032899   
C500     C      0.785850000000     0.782590000000     0.817850000000     0.032943   
C501     C      0.785180000000     0.533320000000     0.861650000000     0.0330223  
C502     C      0.730440000000     0.977200000000     0.861660000000     0.0331879  
C503     C      0.729750000000     0.977890000000     0.817850000000     0.0331381  
C504     C      0.785870000000     0.532630000000     0.817850000000     0.0328922  
C505     C      0.883210000000     0.723240000000     0.006510000000     0.0317095  
C506     C      0.915180000000     0.787190000000     0.006290000000     0.0317575  
C507     C      0.882400000000     0.787190000000     0.006510000000     0.0316382  
C508     C      0.850420000000     0.723240000000     0.006290000000     0.0313564  
C509     C      0.600420000000     0.723240000000     0.006320000000     0.0310669  
C510     C      0.632400000000     0.787190000000     0.006540000000     0.0310072  
C511     C      0.665180000000     0.787190000000     0.006320000000     0.0310013  
C512     C      0.633210000000     0.723240000000     0.006540000000     0.0310496  
C513     C      0.980450000000     0.727150000000     0.861650000000     0.0415053  
C514     C      0.535190000000     0.783270000000     0.861660000000     0.0329185  
C515     C      0.535890000000     0.782590000000     0.817850000000     0.0327862  
C516     C      0.979770000000     0.727850000000     0.817840000000     0.0414865  
C517     C      0.915210000000     0.537240000000     0.006300000000     0.0318206  
C518     C      0.883240000000     0.973290000000     0.006510000000     0.0319742  
C519     C      0.850450000000     0.973290000000     0.006290000000     0.0316174  
C520     C      0.882430000000     0.537240000000     0.006510000000     0.0316736  
C521     C      0.600450000000     0.973290000000     0.006320000000     0.0313527  
C522     C      0.632430000000     0.537240000000     0.006540000000     0.0310512  
C523     C      0.665220000000     0.537240000000     0.006320000000     0.0310808  
C524     C      0.633240000000     0.973290000000     0.006540000000     0.0313061  
C525     C      0.035210000000     0.533320000000     0.861650000000     0.030683   
C526     C      0.480470000000     0.977200000000     0.861650000000     0.0332095  
C527     C      0.479780000000     0.977880000000     0.817850000000     0.0331157  
C528     C      0.035900000000     0.532620000000     0.817850000000     0.0307995  
C529     C      0.785190000000     0.754560000000     0.484520000000     0.0326785  
C530     C      0.730450000000     0.755940000000     0.484510000000     0.03269    
C531     C      0.729750000000     0.754560000000     0.528310000000     0.0326127  
C532     C      0.785870000000     0.755940000000     0.528320000000     0.032754   
C533     C      0.757130000000     0.782600000000     0.194980000000     0.0327673  
C534     C      0.758510000000     0.727860000000     0.194990000000     0.0328327  
C535     C      0.757120000000     0.727160000000     0.151180000000     0.0328201  
C536     C      0.758500000000     0.783280000000     0.151180000000     0.0328476  
C537     C      0.730430000000     0.005920000000     0.484510000000     0.0326236  
C538     C      0.785170000000     0.504540000000     0.484520000000     0.0327116  
C539     C      0.785860000000     0.505920000000     0.528320000000     0.0327057  
C540     C      0.729740000000     0.004540000000     0.528320000000     0.0325518  
C541     C      0.757150000000     0.532630000000     0.194990000000     0.0328086  
C542     C      0.758540000000     0.977890000000     0.194980000000     0.0330874  
C543     C      0.757160000000     0.977210000000     0.151180000000     0.033136   
C544     C      0.758530000000     0.533320000000     0.151180000000     0.0328513  
C545     C      0.535210000000     0.754570000000     0.484510000000     0.0326923  
C546     C      0.980470000000     0.755950000000     0.484510000000     0.0413066  
C547     C      0.979780000000     0.754570000000     0.528320000000     0.0412281  
C548     C      0.535900000000     0.755940000000     0.528320000000     0.0326223  
C549     C      0.915200000000     0.630650000000     0.339880000000     0.0320843  
C550     C      0.883230000000     0.662620000000     0.339660000000     0.0320518  
C551     C      0.850440000000     0.629840000000     0.339880000000     0.0315324  
C552     C      0.882410000000     0.597860000000     0.339660000000     0.0319932  
C553     C      0.600440000000     0.879830000000     0.339830000000     0.0313618  
C554     C      0.632420000000     0.847860000000     0.339620000000     0.0312462  
C555     C      0.665200000000     0.880650000000     0.339830000000     0.0314208  
C556     C      0.633230000000     0.912620000000     0.339610000000     0.0313755  
C557     C      0.007110000000     0.782590000000     0.194980000000     0.0304875  
C558     C      0.508490000000     0.727850000000     0.194990000000     0.0326644  
C559     C      0.507110000000     0.727160000000     0.151180000000     0.0326598  
C560     C      0.008480000000     0.783270000000     0.151180000000     0.0312422  
C561     C      0.535200000000     0.004540000000     0.484510000000     0.0325689  
C562     C      0.980460000000     0.505920000000     0.484520000000     0.0413021  
C563     C      0.979770000000     0.504540000000     0.528320000000     0.0412589  
C564     C      0.535890000000     0.005920000000     0.528320000000     0.032548   
C565     C      0.883230000000     0.912620000000     0.339630000000     0.0320765  
C566     C      0.915200000000     0.880650000000     0.339850000000     0.0321662  
C567     C      0.882410000000     0.847860000000     0.339630000000     0.0319479  
C568     C      0.850440000000     0.879840000000     0.339850000000     0.0315463  
C569     C      0.600440000000     0.629840000000     0.339870000000     0.0312299  
C570     C      0.632420000000     0.597860000000     0.339650000000     0.0312317  
C571     C      0.665200000000     0.630650000000     0.339870000000     0.0314095  
C572     C      0.633230000000     0.662620000000     0.339650000000     0.0314052  
C573     C      0.507130000000     0.532630000000     0.194990000000     0.0325713  
C574     C      0.008520000000     0.977890000000     0.194980000000     0.0315617  
C575     C      0.007140000000     0.977200000000     0.151180000000     0.0308253  
C576     C      0.508520000000     0.533320000000     0.151190000000     0.0326772  
H1       H      0.315770000000     0.437520000000     0.673230000000     0.0379745  
H2       H      0.199830000000     0.379550000000     0.672970000000     0.0379023  
H3       H      0.199830000000     0.322970000000     0.673220000000     0.0379207  
H4       H      0.315770000000     0.380930000000     0.672980000000     0.0380184  
H5       H      0.315770000000     0.187520000000     0.673200000000     0.0380031  
H6       H      0.199830000000     0.129550000000     0.672950000000     0.0379014  
H7       H      0.199830000000     0.072970000000     0.673190000000     0.0378724  
H8       H      0.315770000000     0.130940000000     0.672950000000     0.0379926  
H9       H      0.449870000000     0.379540000000     0.672970000000     0.0379663  
H10      H      0.065810000000     0.437510000000     0.673230000000     0.0380154  
H11      H      0.065810000000     0.380930000000     0.672980000000     0.0379821  
H12      H      0.449870000000     0.322960000000     0.673220000000     0.0379964  
H13      H      0.449870000000     0.072960000000     0.673200000000     0.0379359  
H14      H      0.065810000000     0.130930000000     0.672950000000     0.0380015  
H15      H      0.065810000000     0.187510000000     0.673200000000     0.0380045  
H16      H      0.449870000000     0.129540000000     0.672950000000     0.0379746  
H17      H      0.307480000000     0.305810000000     0.877790000000     0.0384146  
H18      H      0.208110000000     0.204620000000     0.877790000000     0.0382716  
H19      H      0.207200000000     0.205540000000     0.801710000000     0.037932   
H20      H      0.308390000000     0.304920000000     0.801720000000     0.0380722  
H21      H      0.307500000000     0.055860000000     0.877780000000     0.0384244  
H22      H      0.208130000000     0.454670000000     0.877800000000     0.0382765  
H23      H      0.207210000000     0.455570000000     0.801720000000     0.0379128  
H24      H      0.308400000000     0.054950000000     0.801700000000     0.0380822  
H25      H      0.382110000000     0.197240000000     0.006530000000     0.0376302  
H26      H      0.440080000000     0.313180000000     0.006280000000     0.0376505  
H27      H      0.383500000000     0.313180000000     0.006530000000     0.0376386  
H28      H      0.325530000000     0.197240000000     0.006280000000     0.0376315  
H29      H      0.075530000000     0.197240000000     0.006310000000     0.0362766  
H30      H      0.133490000000     0.313180000000     0.006560000000     0.0375681  
H31      H      0.190080000000     0.313180000000     0.006310000000     0.0376384  
H32      H      0.132110000000     0.197240000000     0.006560000000     0.0373265  
H33      H      0.458130000000     0.204620000000     0.877780000000     0.0384293  
H34      H      0.057510000000     0.305800000000     0.877800000000     0.0382529  
H35      H      0.058420000000     0.304900000000     0.801730000000     0.0379397  
H36      H      0.457240000000     0.205530000000     0.801710000000     0.0380731  
H37      H      0.440110000000     0.063240000000     0.006280000000     0.037613   
H38      H      0.382140000000     0.447300000000     0.006530000000     0.0376242  
H39      H      0.325560000000     0.447300000000     0.006280000000     0.0376527  
H40      H      0.383530000000     0.063240000000     0.006530000000     0.0376374  
H41      H      0.075560000000     0.447300000000     0.006310000000     0.0362842  
H42      H      0.133530000000     0.063240000000     0.006550000000     0.0375457  
H43      H      0.190110000000     0.063240000000     0.006310000000     0.037605   
H44      H      0.132140000000     0.447300000000     0.006560000000     0.0373304  
H45      H      0.557530000000     0.055850000000     0.877780000000     0.0383952  
H46      H      0.958150000000     0.454670000000     0.877790000000     0.0380725  
H47      H      0.957250000000     0.455560000000     0.801720000000     0.0378182  
H48      H      0.558440000000     0.054940000000     0.801710000000     0.038047   
H49      H      0.307500000000     0.254340000000     0.468390000000     0.0378813  
H50      H      0.208130000000     0.256160000000     0.468370000000     0.0377257  
H51      H      0.207220000000     0.254350000000     0.544450000000     0.0377526  
H52      H      0.308400000000     0.256160000000     0.544470000000     0.0379219  
H53      H      0.256910000000     0.304920000000     0.211120000000     0.0379352  
H54      H      0.258720000000     0.205540000000     0.211130000000     0.037945   
H55      H      0.256910000000     0.204620000000     0.135060000000     0.0378681  
H56      H      0.258710000000     0.305810000000     0.135040000000     0.0378876  
H57      H      0.208110000000     0.506130000000     0.468370000000     0.0377273  
H58      H      0.307490000000     0.004320000000     0.468390000000     0.0378179  
H59      H      0.308390000000     0.006130000000     0.544460000000     0.0378596  
H60      H      0.207210000000     0.504330000000     0.544450000000     0.0377552  
H61      H      0.256940000000     0.054950000000     0.211130000000     0.0378973  
H62      H      0.258750000000     0.455570000000     0.211120000000     0.0379207  
H63      H      0.256940000000     0.454670000000     0.135040000000     0.0379006  
H64      H      0.258750000000     0.055860000000     0.135050000000     0.0379051  
H65      H      0.057530000000     0.254350000000     0.468380000000     0.0377303  
H66      H      0.458150000000     0.256160000000     0.468390000000     0.0378967  
H67      H      0.457250000000     0.254350000000     0.544460000000     0.0379104  
H68      H      0.058440000000     0.256160000000     0.544450000000     0.0377529  
H69      H      0.440100000000     0.129540000000     0.339900000000     0.0379022  
H70      H      0.382130000000     0.187520000000     0.339650000000     0.0379285  
H71      H      0.325550000000     0.130940000000     0.339900000000     0.0379654  
H72      H      0.383510000000     0.072960000000     0.339650000000     0.0378931  
H73      H      0.075550000000     0.380930000000     0.339850000000     0.0365834  
H74      H      0.133520000000     0.322970000000     0.339610000000     0.0378715  
H75      H      0.190100000000     0.379550000000     0.339860000000     0.0379346  
H76      H      0.132130000000     0.437520000000     0.339610000000     0.0376394  
H77      H      0.506890000000     0.304910000000     0.211120000000     0.037889   
H78      H      0.008700000000     0.205530000000     0.211130000000     0.0363     
H79      H      0.006890000000     0.204620000000     0.135050000000     0.0355232  
H80      H      0.508700000000     0.305810000000     0.135040000000     0.0379149  
H81      H      0.057520000000     0.504330000000     0.468370000000     0.0377415  
H82      H      0.458140000000     0.006140000000     0.468390000000     0.0378413  
H83      H      0.457240000000     0.004320000000     0.544460000000     0.0378144  
H84      H      0.058420000000     0.506130000000     0.544450000000     0.0377456  
H85      H      0.382130000000     0.437520000000     0.339620000000     0.0379255  
H86      H      0.440090000000     0.379540000000     0.339870000000     0.0379367  
H87      H      0.383510000000     0.322970000000     0.339620000000     0.037969   
H88      H      0.325550000000     0.380940000000     0.339870000000     0.0379652  
H89      H      0.075550000000     0.130940000000     0.339880000000     0.0366092  
H90      H      0.133520000000     0.072970000000     0.339630000000     0.037839   
H91      H      0.190100000000     0.129550000000     0.339880000000     0.0378906  
H92      H      0.132130000000     0.187520000000     0.339630000000     0.0376288  
H93      H      0.006920000000     0.054940000000     0.211130000000     0.0355269  
H94      H      0.508730000000     0.455570000000     0.211120000000     0.0379223  
H95      H      0.506920000000     0.454670000000     0.135040000000     0.0378917  
H96      H      0.008730000000     0.055860000000     0.135050000000     0.0362798  
H97      H      0.315770000000     0.937520000000     0.673230000000     0.0380779  
H98      H      0.199830000000     0.879550000000     0.672970000000     0.0379169  
H99      H      0.199830000000     0.822970000000     0.673220000000     0.0379229  
H100     H      0.315770000000     0.880940000000     0.672970000000     0.038015   
H101     H      0.315770000000     0.687520000000     0.673200000000     0.0380128  
H102     H      0.199830000000     0.629550000000     0.672940000000     0.0379102  
H103     H      0.199830000000     0.572970000000     0.673190000000     0.0379105  
H104     H      0.315770000000     0.630940000000     0.672950000000     0.0379674  
H105     H      0.449870000000     0.879540000000     0.672970000000     0.0379825  
H106     H      0.065810000000     0.937510000000     0.673220000000     0.0380398  
H107     H      0.065810000000     0.880930000000     0.672970000000     0.0380393  
H108     H      0.449870000000     0.822960000000     0.673220000000     0.0379903  
H109     H      0.449870000000     0.572960000000     0.673190000000     0.0379824  
H110     H      0.065810000000     0.630930000000     0.672950000000     0.0379948  
H111     H      0.065810000000     0.687510000000     0.673190000000     0.03801    
H112     H      0.449870000000     0.629540000000     0.672940000000     0.0379796  
H113     H      0.307480000000     0.805810000000     0.877790000000     0.0384464  
H114     H      0.208110000000     0.704620000000     0.877780000000     0.0382653  
H115     H      0.207200000000     0.705540000000     0.801700000000     0.0379125  
H116     H      0.308390000000     0.804920000000     0.801720000000     0.0380731  
H117     H      0.307500000000     0.555860000000     0.877780000000     0.038415   
H118     H      0.208130000000     0.954670000000     0.877800000000     0.0382542  
H119     H      0.207210000000     0.955570000000     0.801720000000     0.0379073  
H120     H      0.308400000000     0.554950000000     0.801700000000     0.0380922  
H121     H      0.382110000000     0.697240000000     0.006530000000     0.0376291  
H122     H      0.440080000000     0.813180000000     0.006280000000     0.0376523  
H123     H      0.383490000000     0.813180000000     0.006530000000     0.0376501  
H124     H      0.325530000000     0.697240000000     0.006280000000     0.0376296  
H125     H      0.075530000000     0.697240000000     0.006300000000     0.0362729  
H126     H      0.133490000000     0.813180000000     0.006550000000     0.0375709  
H127     H      0.190080000000     0.813180000000     0.006300000000     0.037642   
H128     H      0.132110000000     0.697240000000     0.006550000000     0.0373243  
H129     H      0.458130000000     0.704620000000     0.877780000000     0.0384321  
H130     H      0.057510000000     0.805810000000     0.877790000000     0.0382667  
H131     H      0.058420000000     0.804910000000     0.801720000000     0.0379202  
H132     H      0.457240000000     0.705530000000     0.801700000000     0.0380647  
H133     H      0.440110000000     0.563240000000     0.006280000000     0.0376015  
H134     H      0.382140000000     0.947300000000     0.006530000000     0.0376076  
H135     H      0.325560000000     0.947300000000     0.006280000000     0.0376276  
H136     H      0.383530000000     0.563240000000     0.006530000000     0.037634   
H137     H      0.075560000000     0.947300000000     0.006310000000     0.036264   
H138     H      0.133530000000     0.563240000000     0.006550000000     0.0375405  
H139     H      0.190110000000     0.563240000000     0.006310000000     0.0376077  
H140     H      0.132140000000     0.947300000000     0.006560000000     0.0373149  
H141     H      0.557530000000     0.555860000000     0.877780000000     0.0383949  
H142     H      0.958150000000     0.954670000000     0.877790000000     0.0380848  
H143     H      0.957250000000     0.955560000000     0.801720000000     0.0377919  
H144     H      0.558440000000     0.554940000000     0.801710000000     0.0380523  
H145     H      0.307500000000     0.754340000000     0.468390000000     0.0379221  
H146     H      0.208130000000     0.756160000000     0.468370000000     0.0377363  
H147     H      0.207220000000     0.754350000000     0.544440000000     0.0377581  
H148     H      0.308400000000     0.756150000000     0.544460000000     0.0379064  
H149     H      0.256910000000     0.804910000000     0.211110000000     0.0379302  
H150     H      0.258720000000     0.705540000000     0.211130000000     0.037908   
H151     H      0.256910000000     0.704620000000     0.135050000000     0.0378836  
H152     H      0.258710000000     0.805810000000     0.135040000000     0.0379036  
H153     H      0.208110000000     0.006130000000     0.468370000000     0.0376788  
H154     H      0.307490000000     0.504320000000     0.468390000000     0.037901   
H155     H      0.308390000000     0.506130000000     0.544460000000     0.037919   
H156     H      0.207200000000     0.004320000000     0.544450000000     0.037667   
H157     H      0.256930000000     0.554950000000     0.211130000000     0.0379096  
H158     H      0.258750000000     0.955570000000     0.211120000000     0.0378923  
H159     H      0.256940000000     0.954670000000     0.135040000000     0.0378892  
H160     H      0.258750000000     0.555860000000     0.135050000000     0.0378915  
H161     H      0.057530000000     0.754350000000     0.468370000000     0.0377422  
H162     H      0.458150000000     0.756160000000     0.468380000000     0.0379132  
H163     H      0.457250000000     0.754350000000     0.544460000000     0.0378997  
H164     H      0.058440000000     0.756160000000     0.544450000000     0.0377506  
H165     H      0.440100000000     0.629550000000     0.339900000000     0.0379254  
H166     H      0.382130000000     0.687520000000     0.339650000000     0.037927   
H167     H      0.325550000000     0.630940000000     0.339900000000     0.0379646  
H168     H      0.383510000000     0.572960000000     0.339650000000     0.037939   
H169     H      0.075550000000     0.880940000000     0.339850000000     0.0365913  
H170     H      0.133510000000     0.822970000000     0.339600000000     0.0378669  
H171     H      0.190100000000     0.879550000000     0.339850000000     0.0379211  
H172     H      0.132130000000     0.937520000000     0.339600000000     0.037714   
H173     H      0.506890000000     0.804910000000     0.211110000000     0.0379042  
H174     H      0.008710000000     0.705530000000     0.211120000000     0.0363036  
H175     H      0.006890000000     0.704620000000     0.135050000000     0.0354819  
H176     H      0.508700000000     0.805810000000     0.135040000000     0.0378994  
H177     H      0.057510000000     0.004320000000     0.468370000000     0.0376594  
H178     H      0.458140000000     0.506140000000     0.468390000000     0.0379017  
H179     H      0.457240000000     0.504330000000     0.544460000000     0.0378989  
H180     H      0.058420000000     0.006130000000     0.544450000000     0.0376881  
H181     H      0.382130000000     0.937520000000     0.339610000000     0.0379978  
H182     H      0.440090000000     0.879540000000     0.339870000000     0.0379265  
H183     H      0.383510000000     0.822970000000     0.339620000000     0.0379503  
H184     H      0.325550000000     0.880940000000     0.339860000000     0.0379863  
H185     H      0.075550000000     0.630940000000     0.339880000000     0.0366056  
H186     H      0.133520000000     0.572970000000     0.339630000000     0.0378858  
H187     H      0.190100000000     0.629550000000     0.339880000000     0.0378974  
H188     H      0.132130000000     0.687520000000     0.339630000000     0.0376263  
H189     H      0.006920000000     0.554940000000     0.211130000000     0.0355259  
H190     H      0.508730000000     0.955570000000     0.211110000000     0.0378813  
H191     H      0.506930000000     0.954670000000     0.135040000000     0.0378758  
H192     H      0.008730000000     0.555860000000     0.135050000000     0.0362901  
H193     H      0.815770000000     0.437520000000     0.673230000000     0.0381067  
H194     H      0.699830000000     0.379550000000     0.672970000000     0.037942   
H195     H      0.699830000000     0.322970000000     0.673220000000     0.037955   
H196     H      0.815770000000     0.380930000000     0.672980000000     0.0381235  
H197     H      0.815770000000     0.187520000000     0.673200000000     0.038093   
H198     H      0.699830000000     0.129550000000     0.672950000000     0.0379334  
H199     H      0.699830000000     0.072970000000     0.673190000000     0.0379107  
H200     H      0.815770000000     0.130940000000     0.672950000000     0.0381268  
H201     H      0.949870000000     0.379540000000     0.672970000000     0.0373828  
H202     H      0.565810000000     0.437510000000     0.673230000000     0.0379534  
H203     H      0.565810000000     0.380930000000     0.672980000000     0.0379535  
H204     H      0.949870000000     0.322960000000     0.673230000000     0.0373798  
H205     H      0.949870000000     0.072960000000     0.673190000000     0.0373371  
H206     H      0.565810000000     0.130930000000     0.672950000000     0.0379299  
H207     H      0.565810000000     0.187510000000     0.673200000000     0.0379685  
H208     H      0.949870000000     0.129540000000     0.672950000000     0.0373677  
H209     H      0.807480000000     0.305810000000     0.877790000000     0.0386593  
H210     H      0.708110000000     0.204620000000     0.877790000000     0.0383899  
H211     H      0.707200000000     0.205540000000     0.801710000000     0.0380632  
H212     H      0.808390000000     0.304920000000     0.801720000000     0.0383164  
H213     H      0.807500000000     0.055860000000     0.877780000000     0.0386671  
H214     H      0.708130000000     0.454670000000     0.877800000000     0.0384172  
H215     H      0.707210000000     0.455570000000     0.801720000000     0.0380403  
H216     H      0.808400000000     0.054950000000     0.801700000000     0.0383197  
H217     H      0.882110000000     0.197240000000     0.006530000000     0.0380048  
H218     H      0.940080000000     0.313180000000     0.006280000000     0.0396112  
H219     H      0.883500000000     0.313180000000     0.006530000000     0.0382882  
H220     H      0.825530000000     0.197240000000     0.006280000000     0.037772   
H221     H      0.575530000000     0.197240000000     0.006310000000     0.0376071  
H222     H      0.633500000000     0.313180000000     0.006560000000     0.0376153  
H223     H      0.690080000000     0.313180000000     0.006310000000     0.0376684  
H224     H      0.632110000000     0.197240000000     0.006560000000     0.0375909  
H225     H      0.958130000000     0.204620000000     0.877780000000     0.0380921  
H226     H      0.557510000000     0.305810000000     0.877800000000     0.0383863  
H227     H      0.558420000000     0.304910000000     0.801720000000     0.03807    
H228     H      0.957240000000     0.205530000000     0.801700000000     0.0378166  
H229     H      0.940110000000     0.063240000000     0.006280000000     0.0395578  
H230     H      0.882140000000     0.447300000000     0.006530000000     0.0380002  
H231     H      0.825560000000     0.447300000000     0.006280000000     0.0377916  
H232     H      0.883530000000     0.063240000000     0.006530000000     0.0382779  
H233     H      0.575560000000     0.447300000000     0.006310000000     0.0376232  
H234     H      0.633530000000     0.063240000000     0.006550000000     0.0375943  
H235     H      0.690110000000     0.063240000000     0.006310000000     0.0376419  
H236     H      0.632140000000     0.447300000000     0.006560000000     0.0375962  
H237     H      0.057530000000     0.055850000000     0.877780000000     0.0382622  
H238     H      0.458150000000     0.454670000000     0.877790000000     0.0384108  
H239     H      0.457250000000     0.455560000000     0.801720000000     0.0380855  
H240     H      0.058440000000     0.054940000000     0.801710000000     0.0379162  
H241     H      0.807500000000     0.254340000000     0.468390000000     0.0381584  
H242     H      0.708130000000     0.256160000000     0.468370000000     0.0378587  
H243     H      0.707220000000     0.254350000000     0.544450000000     0.037876   
H244     H      0.808400000000     0.256160000000     0.544470000000     0.0381484  
H245     H      0.756910000000     0.304920000000     0.211120000000     0.0380939  
H246     H      0.758720000000     0.205540000000     0.211130000000     0.0381052  
H247     H      0.756910000000     0.204620000000     0.135060000000     0.0380269  
H248     H      0.758710000000     0.305810000000     0.135040000000     0.0380485  
H249     H      0.708120000000     0.506130000000     0.468370000000     0.0378722  
H250     H      0.807490000000     0.004320000000     0.468390000000     0.0380614  
H251     H      0.808390000000     0.006130000000     0.544460000000     0.0380961  
H252     H      0.707210000000     0.504330000000     0.544450000000     0.0378823  
H253     H      0.756940000000     0.054950000000     0.211120000000     0.038032   
H254     H      0.758750000000     0.455570000000     0.211120000000     0.0380815  
H255     H      0.756940000000     0.454670000000     0.135040000000     0.0380592  
H256     H      0.758750000000     0.055860000000     0.135050000000     0.0380737  
H257     H      0.557530000000     0.254350000000     0.468380000000     0.0378621  
H258     H      0.958150000000     0.256160000000     0.468390000000     0.0375626  
H259     H      0.957250000000     0.254350000000     0.544460000000     0.0376496  
H260     H      0.558440000000     0.256150000000     0.544450000000     0.037874   
H261     H      0.940090000000     0.129540000000     0.339900000000     0.0398673  
H262     H      0.882130000000     0.187520000000     0.339650000000     0.0383026  
H263     H      0.825550000000     0.130940000000     0.339900000000     0.0381056  
H264     H      0.883510000000     0.072960000000     0.339650000000     0.0385396  
H265     H      0.575550000000     0.380930000000     0.339850000000     0.0379177  
H266     H      0.633510000000     0.322970000000     0.339610000000     0.0379062  
H267     H      0.690090000000     0.379550000000     0.339850000000     0.0379823  
H268     H      0.632130000000     0.437520000000     0.339610000000     0.0379084  
H269     H      0.006890000000     0.304910000000     0.211120000000     0.035493   
H270     H      0.508710000000     0.205530000000     0.211130000000     0.0379047  
H271     H      0.506890000000     0.204620000000     0.135050000000     0.0378743  
H272     H      0.008700000000     0.305810000000     0.135040000000     0.0363237  
H273     H      0.557520000000     0.504330000000     0.468370000000     0.0378724  
H274     H      0.958140000000     0.006140000000     0.468390000000     0.0375089  
H275     H      0.957240000000     0.004320000000     0.544460000000     0.0375559  
H276     H      0.558420000000     0.506130000000     0.544450000000     0.0378756  
H277     H      0.882130000000     0.437520000000     0.339620000000     0.0383029  
H278     H      0.940100000000     0.379550000000     0.339870000000     0.0399195  
H279     H      0.883510000000     0.322970000000     0.339620000000     0.038583   
H280     H      0.825550000000     0.380940000000     0.339870000000     0.0381045  
H281     H      0.575550000000     0.130940000000     0.339880000000     0.037941   
H282     H      0.633520000000     0.072970000000     0.339630000000     0.0378935  
H283     H      0.690100000000     0.129550000000     0.339880000000     0.0379208  
H284     H      0.632130000000     0.187520000000     0.339630000000     0.0378944  
H285     H      0.506920000000     0.054940000000     0.211130000000     0.0379093  
H286     H      0.008730000000     0.455570000000     0.211120000000     0.0363265  
H287     H      0.006920000000     0.454670000000     0.135040000000     0.0355059  
H288     H      0.508730000000     0.055860000000     0.135050000000     0.0378674  
H289     H      0.815770000000     0.937520000000     0.673230000000     0.0381943  
H290     H      0.699830000000     0.879550000000     0.672970000000     0.0379544  
H291     H      0.699830000000     0.822970000000     0.673220000000     0.0379623  
H292     H      0.815770000000     0.880940000000     0.672970000000     0.0381402  
H293     H      0.815770000000     0.687520000000     0.673200000000     0.0380962  
H294     H      0.699830000000     0.629550000000     0.672940000000     0.0379467  
H295     H      0.699830000000     0.572970000000     0.673190000000     0.0379533  
H296     H      0.815770000000     0.630940000000     0.672950000000     0.0381258  
H297     H      0.949870000000     0.879540000000     0.672970000000     0.0373912  
H298     H      0.565810000000     0.937510000000     0.673220000000     0.0379819  
H299     H      0.565810000000     0.880930000000     0.672970000000     0.0379896  
H300     H      0.949870000000     0.822960000000     0.673220000000     0.0373965  
H301     H      0.949870000000     0.572960000000     0.673190000000     0.0373771  
H302     H      0.565810000000     0.630930000000     0.672950000000     0.0379599  
H303     H      0.565810000000     0.687510000000     0.673190000000     0.0379256  
H304     H      0.949870000000     0.629540000000     0.672940000000     0.0373809  
H305     H      0.807480000000     0.805810000000     0.877790000000     0.0386796  
H306     H      0.708110000000     0.704620000000     0.877780000000     0.0384006  
H307     H      0.707200000000     0.705540000000     0.801700000000     0.0380297  
H308     H      0.808390000000     0.804920000000     0.801710000000     0.0383264  
H309     H      0.807500000000     0.555860000000     0.877780000000     0.0386592  
H310     H      0.708130000000     0.954670000000     0.877790000000     0.0383834  
H311     H      0.707210000000     0.955570000000     0.801720000000     0.0380365  
H312     H      0.808400000000     0.554950000000     0.801700000000     0.0383339  
H313     H      0.882110000000     0.697240000000     0.006530000000     0.0380047  
H314     H      0.940080000000     0.813180000000     0.006280000000     0.0396089  
H315     H      0.883490000000     0.813180000000     0.006530000000     0.0382989  
H316     H      0.825530000000     0.697240000000     0.006280000000     0.0377704  
H317     H      0.575530000000     0.697240000000     0.006300000000     0.0376068  
H318     H      0.633490000000     0.813180000000     0.006550000000     0.0376275  
H319     H      0.690080000000     0.813180000000     0.006300000000     0.0376709  
H320     H      0.632110000000     0.697240000000     0.006550000000     0.0375895  
H321     H      0.958130000000     0.704620000000     0.877780000000     0.0380973  
H322     H      0.557510000000     0.805810000000     0.877790000000     0.038393   
H323     H      0.558420000000     0.804910000000     0.801720000000     0.0380655  
H324     H      0.957240000000     0.705530000000     0.801700000000     0.0378053  
H325     H      0.940110000000     0.563240000000     0.006280000000     0.0395712  
H326     H      0.882140000000     0.947300000000     0.006530000000     0.0379764  
H327     H      0.825560000000     0.947300000000     0.006280000000     0.0377605  
H328     H      0.883530000000     0.563240000000     0.006530000000     0.0382814  
H329     H      0.575560000000     0.947300000000     0.006310000000     0.0375839  
H330     H      0.633530000000     0.563240000000     0.006550000000     0.0375969  
H331     H      0.690110000000     0.563240000000     0.006310000000     0.0376227  
H332     H      0.632140000000     0.947300000000     0.006560000000     0.0375803  
H333     H      0.057530000000     0.555860000000     0.877780000000     0.0382602  
H334     H      0.458150000000     0.954670000000     0.877790000000     0.0384105  
H335     H      0.457250000000     0.955560000000     0.801720000000     0.0380664  
H336     H      0.058440000000     0.554940000000     0.801710000000     0.0379161  
H337     H      0.807500000000     0.754340000000     0.468390000000     0.0381661  
H338     H      0.708130000000     0.756160000000     0.468370000000     0.03787    
H339     H      0.707220000000     0.754350000000     0.544440000000     0.0378883  
H340     H      0.808400000000     0.756150000000     0.544460000000     0.0381487  
H341     H      0.756910000000     0.804910000000     0.211110000000     0.038088   
H342     H      0.758720000000     0.705540000000     0.211130000000     0.0380688  
H343     H      0.756910000000     0.704620000000     0.135050000000     0.0380435  
H344     H      0.758710000000     0.805810000000     0.135040000000     0.038063   
H345     H      0.708110000000     0.006130000000     0.468370000000     0.0378084  
H346     H      0.807490000000     0.504320000000     0.468390000000     0.0381462  
H347     H      0.808390000000     0.506130000000     0.544460000000     0.0381562  
H348     H      0.707200000000     0.004320000000     0.544450000000     0.0377931  
H349     H      0.756930000000     0.554950000000     0.211130000000     0.0380686  
H350     H      0.758750000000     0.955570000000     0.211120000000     0.03806    
H351     H      0.756940000000     0.954670000000     0.135040000000     0.0380394  
H352     H      0.758750000000     0.555860000000     0.135050000000     0.0380525  
H353     H      0.557530000000     0.754350000000     0.468370000000     0.037867   
H354     H      0.958150000000     0.756160000000     0.468380000000     0.0375662  
H355     H      0.957250000000     0.754350000000     0.544460000000     0.037659   
H356     H      0.558440000000     0.756150000000     0.544450000000     0.0378794  
H357     H      0.940090000000     0.629550000000     0.339900000000     0.0398911  
H358     H      0.882130000000     0.687520000000     0.339650000000     0.0383019  
H359     H      0.825550000000     0.630940000000     0.339900000000     0.0381053  
H360     H      0.883510000000     0.572960000000     0.339650000000     0.0385862  
H361     H      0.575550000000     0.880940000000     0.339850000000     0.0379284  
H362     H      0.633520000000     0.822970000000     0.339600000000     0.0379456  
H363     H      0.690100000000     0.879550000000     0.339850000000     0.0379411  
H364     H      0.632130000000     0.937520000000     0.339600000000     0.0379752  
H365     H      0.006890000000     0.804910000000     0.211110000000     0.035519   
H366     H      0.508710000000     0.705530000000     0.211120000000     0.0378908  
H367     H      0.506890000000     0.704620000000     0.135050000000     0.0378874  
H368     H      0.008700000000     0.805810000000     0.135040000000     0.0363107  
H369     H      0.557510000000     0.004320000000     0.468370000000     0.0377837  
H370     H      0.958140000000     0.506140000000     0.468390000000     0.0375642  
H371     H      0.957240000000     0.504320000000     0.544460000000     0.0376429  
H372     H      0.558420000000     0.006130000000     0.544450000000     0.0378206  
H373     H      0.882130000000     0.937520000000     0.339610000000     0.0383652  
H374     H      0.940100000000     0.879540000000     0.339870000000     0.0398728  
H375     H      0.883510000000     0.822970000000     0.339620000000     0.0385996  
H376     H      0.825550000000     0.880940000000     0.339860000000     0.0381254  
H377     H      0.575550000000     0.630940000000     0.339880000000     0.0379418  
H378     H      0.633520000000     0.572970000000     0.339630000000     0.037944   
H379     H      0.690100000000     0.629550000000     0.339880000000     0.037929   
H380     H      0.632130000000     0.687520000000     0.339630000000     0.0378933  
H381     H      0.506920000000     0.554940000000     0.211130000000     0.0379269  
H382     H      0.008730000000     0.955570000000     0.211110000000     0.0362944  
H383     H      0.006930000000     0.954670000000     0.135040000000     0.0354966  
H384     H      0.508730000000     0.555860000000     0.135050000000     0.0378848  
N1       N      0.257800000000     0.413010000000     0.673100000000    -0.180219   
N2       N      0.257800000000     0.347470000000     0.673100000000    -0.180178   
N3       N      0.257800000000     0.163010000000     0.673070000000    -0.180188   
N4       N      0.257800000000     0.097470000000     0.673070000000    -0.180193   
N5       N      0.507840000000     0.413000000000     0.673100000000    -0.180133   
N6       N      0.507840000000     0.347470000000     0.673100000000    -0.180111   
N7       N      0.507840000000     0.097470000000     0.673070000000    -0.180153   
N8       N      0.507840000000     0.163000000000     0.673070000000    -0.180112   
N9       N      0.257800000000     0.255220000000     0.883390000000    -0.180407   
N10      N      0.257790000000     0.255230000000     0.796110000000    -0.180663   
N11      N      0.257820000000     0.005260000000     0.883390000000    -0.180562   
N12      N      0.257810000000     0.005260000000     0.796110000000    -0.180776   
N13      N      0.415570000000     0.255210000000     0.006410000000    -0.18027    
N14      N      0.350030000000     0.255210000000     0.006410000000    -0.180278   
N15      N      0.100030000000     0.255210000000     0.006430000000    -0.180608   
N16      N      0.165570000000     0.255210000000     0.006430000000    -0.180277   
N17      N      0.507820000000     0.255210000000     0.883390000000    -0.18036    
N18      N      0.007830000000     0.255220000000     0.796110000000    -0.184695   
N19      N      0.415600000000     0.005270000000     0.006400000000    -0.180406   
N20      N      0.350070000000     0.005270000000     0.006400000000    -0.180343   
N21      N      0.100070000000     0.005270000000     0.006430000000    -0.180729   
N22      N      0.165600000000     0.005270000000     0.006430000000    -0.180362   
N23      N      0.507840000000     0.005260000000     0.883390000000    -0.180551   
N24      N      0.507840000000     0.005250000000     0.796110000000    -0.18077    
N25      N      0.257820000000     0.255250000000     0.462780000000    -0.180747   
N26      N      0.257810000000     0.255250000000     0.550060000000    -0.180687   
N27      N      0.257820000000     0.255230000000     0.216730000000    -0.180572   
N28      N      0.257810000000     0.255220000000     0.129450000000    -0.180665   
N29      N      0.257800000000     0.005230000000     0.462770000000    -0.180713   
N30      N      0.257800000000     0.005230000000     0.550060000000    -0.180597   
N31      N      0.257840000000     0.005260000000     0.216720000000    -0.180814   
N32      N      0.257850000000     0.005270000000     0.129440000000    -0.180755   
N33      N      0.507840000000     0.255250000000     0.462780000000    -0.180711   
N34      N      0.007840000000     0.255250000000     0.550060000000    -0.184697   
N35      N      0.415590000000     0.163010000000     0.339770000000    -0.18026    
N36      N      0.350050000000     0.097470000000     0.339770000000    -0.180218   
N37      N      0.100050000000     0.347470000000     0.339730000000    -0.180547   
N38      N      0.165590000000     0.413010000000     0.339730000000    -0.180231   
N39      N      0.507800000000     0.255220000000     0.216730000000    -0.180667   
N40      N      0.507790000000     0.255210000000     0.129450000000    -0.180597   
N41      N      0.507830000000     0.505230000000     0.462780000000    -0.180661   
N42      N      0.507830000000     0.505230000000     0.550060000000    -0.180696   
N43      N      0.415590000000     0.413010000000     0.339750000000    -0.18023    
N44      N      0.350050000000     0.347470000000     0.339750000000    -0.180176   
N45      N      0.100050000000     0.097470000000     0.339760000000    -0.180514   
N46      N      0.165590000000     0.163010000000     0.339760000000    -0.180268   
N47      N      0.007820000000     0.005250000000     0.216720000000    -0.179311   
N48      N      0.007830000000     0.005260000000     0.129440000000    -0.179332   
N49      N      0.257800000000     0.913010000000     0.673100000000    -0.180159   
N50      N      0.257800000000     0.847470000000     0.673090000000    -0.180183   
N51      N      0.257800000000     0.663010000000     0.673070000000    -0.180176   
N52      N      0.257800000000     0.597480000000     0.673070000000    -0.180127   
N53      N      0.507840000000     0.913000000000     0.673090000000    -0.1802     
N54      N      0.507840000000     0.847470000000     0.673100000000    -0.180104   
N55      N      0.507840000000     0.597470000000     0.673070000000    -0.180172   
N56      N      0.507840000000     0.663000000000     0.673070000000    -0.180151   
N57      N      0.257790000000     0.755220000000     0.883390000000    -0.180406   
N58      N      0.257790000000     0.755230000000     0.796110000000    -0.180679   
N59      N      0.257820000000     0.505270000000     0.883390000000    -0.180413   
N60      N      0.257810000000     0.505260000000     0.796110000000    -0.180668   
N61      N      0.415570000000     0.755210000000     0.006400000000    -0.180273   
N62      N      0.350030000000     0.755210000000     0.006400000000    -0.180277   
N63      N      0.100030000000     0.755210000000     0.006430000000    -0.180609   
N64      N      0.165570000000     0.755210000000     0.006430000000    -0.180274   
N65      N      0.507820000000     0.755210000000     0.883390000000    -0.180371   
N66      N      0.007830000000     0.755220000000     0.796110000000    -0.184716   
N67      N      0.415600000000     0.505270000000     0.006410000000    -0.180325   
N68      N      0.350070000000     0.505270000000     0.006410000000    -0.18019    
N69      N      0.100070000000     0.505270000000     0.006430000000    -0.180586   
N70      N      0.165600000000     0.505270000000     0.006430000000    -0.180275   
N71      N      0.507840000000     0.505260000000     0.883390000000    -0.180411   
N72      N      0.507840000000     0.505250000000     0.796110000000    -0.180616   
N73      N      0.257820000000     0.755250000000     0.462770000000    -0.180757   
N74      N      0.257810000000     0.755250000000     0.550060000000    -0.180748   
N75      N      0.257820000000     0.755230000000     0.216720000000    -0.180609   
N76      N      0.257810000000     0.755220000000     0.129440000000    -0.180653   
N77      N      0.257800000000     0.505230000000     0.462780000000    -0.180715   
N78      N      0.257800000000     0.505230000000     0.550060000000    -0.180645   
N79      N      0.257840000000     0.505260000000     0.216730000000    -0.180658   
N80      N      0.257850000000     0.505270000000     0.129440000000    -0.180625   
N81      N      0.507840000000     0.755250000000     0.462770000000    -0.180719   
N82      N      0.007840000000     0.755250000000     0.550060000000    -0.184731   
N83      N      0.415590000000     0.663010000000     0.339770000000    -0.180253   
N84      N      0.350050000000     0.597470000000     0.339770000000    -0.18021    
N85      N      0.100050000000     0.847470000000     0.339730000000    -0.18057    
N86      N      0.165590000000     0.913010000000     0.339730000000    -0.180236   
N87      N      0.507800000000     0.755220000000     0.216720000000    -0.180663   
N88      N      0.507790000000     0.755210000000     0.129440000000    -0.180608   
N89      N      0.507830000000     0.005230000000     0.462770000000    -0.180706   
N90      N      0.507830000000     0.005230000000     0.550060000000    -0.180644   
N91      N      0.415590000000     0.913010000000     0.339740000000    -0.180237   
N92      N      0.350050000000     0.847470000000     0.339740000000    -0.180199   
N93      N      0.100050000000     0.597470000000     0.339760000000    -0.180503   
N94      N      0.165590000000     0.663010000000     0.339760000000    -0.180272   
N95      N      0.007820000000     0.505260000000     0.216730000000    -0.179159   
N96      N      0.007830000000     0.505260000000     0.129440000000    -0.179172   
N97      N      0.757800000000     0.413010000000     0.673100000000    -0.180205   
N98      N      0.757800000000     0.347470000000     0.673100000000    -0.180194   
N99      N      0.757800000000     0.163010000000     0.673070000000    -0.180211   
N100     N      0.757800000000     0.097470000000     0.673070000000    -0.180172   
N101     N      0.007840000000     0.413000000000     0.673100000000    -0.184157   
N102     N      0.007840000000     0.347470000000     0.673100000000    -0.1842     
N103     N      0.007840000000     0.097470000000     0.673070000000    -0.184183   
N104     N      0.007840000000     0.163000000000     0.673070000000    -0.184161   
N105     N      0.757800000000     0.255220000000     0.883390000000    -0.180408   
N106     N      0.757790000000     0.255230000000     0.796110000000    -0.180638   
N107     N      0.757820000000     0.005260000000     0.883390000000    -0.180538   
N108     N      0.757810000000     0.005260000000     0.796110000000    -0.180757   
N109     N      0.915570000000     0.255210000000     0.006410000000    -0.179719   
N110     N      0.850030000000     0.255210000000     0.006410000000    -0.180195   
N111     N      0.600030000000     0.255210000000     0.006430000000    -0.180282   
N112     N      0.665570000000     0.255210000000     0.006430000000    -0.180273   
N113     N      0.007820000000     0.255210000000     0.883390000000    -0.184433   
N114     N      0.507830000000     0.255220000000     0.796110000000    -0.18065    
N115     N      0.915600000000     0.005270000000     0.006400000000    -0.179913   
N116     N      0.850070000000     0.005270000000     0.006400000000    -0.180325   
N117     N      0.600070000000     0.005270000000     0.006430000000    -0.180478   
N118     N      0.665600000000     0.005270000000     0.006430000000    -0.180366   
N119     N      0.007840000000     0.005260000000     0.883390000000    -0.184596   
N120     N      0.007840000000     0.005250000000     0.796110000000    -0.18481    
N121     N      0.757820000000     0.255250000000     0.462780000000    -0.180692   
N122     N      0.757810000000     0.255250000000     0.550060000000    -0.180679   
N123     N      0.757820000000     0.255230000000     0.216730000000    -0.180518   
N124     N      0.757810000000     0.255220000000     0.129450000000    -0.18061    
N125     N      0.757800000000     0.005230000000     0.462770000000    -0.180695   
N126     N      0.757800000000     0.005230000000     0.550060000000    -0.18058    
N127     N      0.757840000000     0.005260000000     0.216720000000    -0.180802   
N128     N      0.757850000000     0.005270000000     0.129440000000    -0.180696   
N129     N      0.007840000000     0.255250000000     0.462780000000    -0.184784   
N130     N      0.507840000000     0.255250000000     0.550060000000    -0.180651   
N131     N      0.915590000000     0.163010000000     0.339770000000    -0.179704   
N132     N      0.850050000000     0.097470000000     0.339770000000    -0.180139   
N133     N      0.600050000000     0.347470000000     0.339730000000    -0.180254   
N134     N      0.665590000000     0.413010000000     0.339730000000    -0.180216   
N135     N      0.007800000000     0.255220000000     0.216730000000    -0.179232   
N136     N      0.007790000000     0.255210000000     0.129450000000    -0.179079   
N137     N      0.007830000000     0.505230000000     0.462780000000    -0.184739   
N138     N      0.007830000000     0.505230000000     0.550060000000    -0.184742   
N139     N      0.915590000000     0.413010000000     0.339750000000    -0.179671   
N140     N      0.850050000000     0.347470000000     0.339750000000    -0.180129   
N141     N      0.600050000000     0.097470000000     0.339760000000    -0.180189   
N142     N      0.665590000000     0.163010000000     0.339760000000    -0.180266   
N143     N      0.507820000000     0.005250000000     0.216720000000    -0.180799   
N144     N      0.507830000000     0.005260000000     0.129440000000    -0.180815   
N145     N      0.757800000000     0.913010000000     0.673100000000    -0.180153   
N146     N      0.757800000000     0.847470000000     0.673090000000    -0.180167   
N147     N      0.757800000000     0.663010000000     0.673070000000    -0.180203   
N148     N      0.757800000000     0.597480000000     0.673070000000    -0.180082   
N149     N      0.007840000000     0.913000000000     0.673100000000    -0.184172   
N150     N      0.007840000000     0.847470000000     0.673100000000    -0.184149   
N151     N      0.007840000000     0.597470000000     0.673070000000    -0.184243   
N152     N      0.007840000000     0.663000000000     0.673070000000    -0.184166   
N153     N      0.757800000000     0.755220000000     0.883390000000    -0.180397   
N154     N      0.757790000000     0.755230000000     0.796110000000    -0.180667   
N155     N      0.757820000000     0.505270000000     0.883390000000    -0.180387   
N156     N      0.757810000000     0.505260000000     0.796110000000    -0.180645   
N157     N      0.915570000000     0.755210000000     0.006400000000    -0.179723   
N158     N      0.850030000000     0.755210000000     0.006400000000    -0.18019    
N159     N      0.600030000000     0.755210000000     0.006430000000    -0.180283   
N160     N      0.665570000000     0.755210000000     0.006430000000    -0.180277   
N161     N      0.007820000000     0.755210000000     0.883390000000    -0.184439   
N162     N      0.507830000000     0.755220000000     0.796110000000    -0.18066    
N163     N      0.915600000000     0.505270000000     0.006410000000    -0.179757   
N164     N      0.850070000000     0.505270000000     0.006400000000    -0.180111   
N165     N      0.600070000000     0.505270000000     0.006430000000    -0.180265   
N166     N      0.665600000000     0.505270000000     0.006430000000    -0.180284   
N167     N      0.007840000000     0.505260000000     0.883390000000    -0.184491   
N168     N      0.007840000000     0.505250000000     0.796110000000    -0.184709   
N169     N      0.757820000000     0.755250000000     0.462770000000    -0.180736   
N170     N      0.757810000000     0.755250000000     0.550060000000    -0.180723   
N171     N      0.757820000000     0.755230000000     0.216720000000    -0.180555   
N172     N      0.757810000000     0.755220000000     0.129440000000    -0.180598   
N173     N      0.757800000000     0.505230000000     0.462780000000    -0.180688   
N174     N      0.757800000000     0.505230000000     0.550060000000    -0.180633   
N175     N      0.757840000000     0.505260000000     0.216730000000    -0.180604   
N176     N      0.757850000000     0.505270000000     0.129440000000    -0.18057    
N177     N      0.007840000000     0.755250000000     0.462770000000    -0.184823   
N178     N      0.507840000000     0.755250000000     0.550060000000    -0.180712   
N179     N      0.915590000000     0.663010000000     0.339770000000    -0.179697   
N180     N      0.850050000000     0.597470000000     0.339770000000    -0.18013    
N181     N      0.600050000000     0.847470000000     0.339730000000    -0.180212   
N182     N      0.665590000000     0.913010000000     0.339730000000    -0.180242   
N183     N      0.007800000000     0.755220000000     0.216720000000    -0.179175   
N184     N      0.007790000000     0.755210000000     0.129440000000    -0.179142   
N185     N      0.007830000000     0.005230000000     0.462770000000    -0.184763   
N186     N      0.007830000000     0.005230000000     0.550060000000    -0.184686   
N187     N      0.915590000000     0.913010000000     0.339740000000    -0.179696   
N188     N      0.850050000000     0.847470000000     0.339740000000    -0.180116   
N189     N      0.600050000000     0.597470000000     0.339760000000    -0.180176   
N190     N      0.665590000000     0.663010000000     0.339760000000    -0.180269   
N191     N      0.507830000000     0.505260000000     0.216730000000    -0.180631   
N192     N      0.507830000000     0.505260000000     0.129440000000    -0.180654   
Ni1      Ni     0.491700000000     0.021360000000     0.339750000000     1.00327    
Ni2      Ni     0.023940000000     0.489120000000     0.339750000000     0.977955   
Ni3      Ni     0.023940000000     0.239120000000     0.339750000000     0.978013   
Ni4      Ni     0.491700000000     0.271360000000     0.339750000000     1.00431    
Ni5      Ni     0.273940000000     0.489120000000     0.339750000000     1.00433    
Ni6      Ni     0.241700000000     0.021360000000     0.339750000000     1.00321    
Ni7      Ni     0.241700000000     0.271360000000     0.339750000000     1.00419    
Ni8      Ni     0.273940000000     0.239120000000     0.339760000000     1.00426    
Ni9      Ni     0.491720000000     0.473030000000     0.006420000000     1.00133    
Ni10     Ni     0.023950000000     0.037500000000     0.006420000000     0.974873   
Ni11     Ni     0.023920000000     0.287450000000     0.006420000000     0.975087   
Ni12     Ni     0.491690000000     0.222980000000     0.006420000000     1.00105    
Ni13     Ni     0.241720000000     0.473030000000     0.006420000000     1.00126    
Ni14     Ni     0.273950000000     0.037500000000     0.006420000000     1.00096    
Ni15     Ni     0.273920000000     0.287450000000     0.006420000000     1.00139    
Ni16     Ni     0.241690000000     0.222980000000     0.006420000000     1.00127    
Ni17     Ni     0.040070000000     0.021350000000     0.673080000000     0.989257   
Ni18     Ni     0.475610000000     0.489120000000     0.673090000000     1.00429    
Ni19     Ni     0.040070000000     0.271350000000     0.673090000000     0.990111   
Ni20     Ni     0.475600000000     0.239120000000     0.673080000000     1.00438    
Ni21     Ni     0.225570000000     0.489120000000     0.673090000000     1.00411    
Ni22     Ni     0.290030000000     0.021360000000     0.673080000000     1.00314    
Ni23     Ni     0.225570000000     0.239130000000     0.673080000000     1.00389    
Ni24     Ni     0.290030000000     0.271360000000     0.673090000000     1.00439    
Ni25     Ni     0.491700000000     0.521360000000     0.339760000000     1.00422    
Ni26     Ni     0.023940000000     0.989120000000     0.339750000000     0.978941   
Ni27     Ni     0.023940000000     0.739120000000     0.339750000000     0.978028   
Ni28     Ni     0.491700000000     0.771360000000     0.339750000000     1.00427    
Ni29     Ni     0.273940000000     0.989120000000     0.339750000000     1.00521    
Ni30     Ni     0.241700000000     0.521360000000     0.339750000000     1.00432    
Ni31     Ni     0.241700000000     0.771360000000     0.339740000000     1.00419    
Ni32     Ni     0.273940000000     0.739120000000     0.339750000000     1.00426    
Ni33     Ni     0.491720000000     0.973030000000     0.006420000000     1.00177    
Ni34     Ni     0.023950000000     0.537500000000     0.006420000000     0.975261   
Ni35     Ni     0.023920000000     0.787450000000     0.006410000000     0.974948   
Ni36     Ni     0.491690000000     0.722980000000     0.006410000000     1.00122    
Ni37     Ni     0.241720000000     0.973030000000     0.006420000000     1.00152    
Ni38     Ni     0.273950000000     0.537500000000     0.006420000000     1.00147    
Ni39     Ni     0.273920000000     0.787450000000     0.006410000000     1.00125    
Ni40     Ni     0.241690000000     0.722980000000     0.006410000000     1.0014     
Ni41     Ni     0.040070000000     0.521350000000     0.673080000000     0.989989   
Ni42     Ni     0.475600000000     0.989120000000     0.673080000000     1.00523    
Ni43     Ni     0.040070000000     0.771350000000     0.673080000000     0.989783   
Ni44     Ni     0.475600000000     0.739120000000     0.673080000000     1.00452    
Ni45     Ni     0.225570000000     0.989130000000     0.673080000000     1.00495    
Ni46     Ni     0.290030000000     0.521360000000     0.673080000000     1.00413    
Ni47     Ni     0.225570000000     0.739130000000     0.673080000000     1.00391    
Ni48     Ni     0.290030000000     0.771360000000     0.673080000000     1.00423    
Ni49     Ni     0.991700000000     0.021360000000     0.339750000000     1.02647    
Ni50     Ni     0.523940000000     0.489120000000     0.339750000000     1.00417    
Ni51     Ni     0.523940000000     0.239120000000     0.339750000000     1.00418    
Ni52     Ni     0.991700000000     0.271360000000     0.339750000000     1.02756    
Ni53     Ni     0.773940000000     0.489120000000     0.339750000000     1.00456    
Ni54     Ni     0.741700000000     0.021360000000     0.339750000000     1.00322    
Ni55     Ni     0.741700000000     0.271360000000     0.339750000000     1.00415    
Ni56     Ni     0.773940000000     0.239120000000     0.339760000000     1.0045     
Ni57     Ni     0.991720000000     0.473030000000     0.006420000000     1.02469    
Ni58     Ni     0.523950000000     0.037500000000     0.006420000000     1.00068    
Ni59     Ni     0.523920000000     0.287450000000     0.006420000000     1.00124    
Ni60     Ni     0.991690000000     0.222980000000     0.006420000000     1.02427    
Ni61     Ni     0.741720000000     0.473030000000     0.006420000000     1.0012     
Ni62     Ni     0.773950000000     0.037500000000     0.006420000000     1.00099    
Ni63     Ni     0.773920000000     0.287450000000     0.006420000000     1.00147    
Ni64     Ni     0.741690000000     0.222980000000     0.006420000000     1.00125    
Ni65     Ni     0.540070000000     0.021350000000     0.673080000000     1.00336    
Ni66     Ni     0.975610000000     0.489120000000     0.673090000000     1.01101    
Ni67     Ni     0.540070000000     0.271350000000     0.673090000000     1.00413    
Ni68     Ni     0.975600000000     0.239120000000     0.673080000000     1.01119    
Ni69     Ni     0.725570000000     0.489120000000     0.673080000000     1.00426    
Ni70     Ni     0.790040000000     0.021360000000     0.673080000000     1.0035     
Ni71     Ni     0.725560000000     0.239130000000     0.673080000000     1.00398    
Ni72     Ni     0.790030000000     0.271360000000     0.673090000000     1.0048     
Ni73     Ni     0.991700000000     0.521360000000     0.339760000000     1.02744    
Ni74     Ni     0.523940000000     0.989120000000     0.339750000000     1.00507    
Ni75     Ni     0.523940000000     0.739120000000     0.339750000000     1.00415    
Ni76     Ni     0.991700000000     0.771360000000     0.339750000000     1.02745    
Ni77     Ni     0.773940000000     0.989120000000     0.339750000000     1.00543    
Ni78     Ni     0.741700000000     0.521360000000     0.339750000000     1.00428    
Ni79     Ni     0.741700000000     0.771360000000     0.339740000000     1.00415    
Ni80     Ni     0.773940000000     0.739120000000     0.339750000000     1.0045     
Ni81     Ni     0.991720000000     0.973030000000     0.006420000000     1.02481    
Ni82     Ni     0.523950000000     0.537500000000     0.006420000000     1.00123    
Ni83     Ni     0.523920000000     0.787450000000     0.006410000000     1.00109    
Ni84     Ni     0.991690000000     0.722980000000     0.006410000000     1.02444    
Ni85     Ni     0.741720000000     0.973030000000     0.006420000000     1.0015     
Ni86     Ni     0.773950000000     0.537500000000     0.006420000000     1.00171    
Ni87     Ni     0.773920000000     0.787450000000     0.006410000000     1.00149    
Ni88     Ni     0.741680000000     0.722980000000     0.006410000000     1.00135    
Ni89     Ni     0.540070000000     0.521350000000     0.673080000000     1.0042     
Ni90     Ni     0.975600000000     0.989120000000     0.673080000000     1.01181    
Ni91     Ni     0.540070000000     0.771350000000     0.673080000000     1.0041     
Ni92     Ni     0.975610000000     0.739120000000     0.673080000000     1.01109    
Ni93     Ni     0.725570000000     0.989130000000     0.673080000000     1.00507    
Ni94     Ni     0.790040000000     0.521360000000     0.673080000000     1.00447    
Ni95     Ni     0.725570000000     0.739130000000     0.673080000000     1.00389    
Ni96     Ni     0.790030000000     0.771360000000     0.673080000000     1.00454    
O1       O      0.494840000000     0.022340000000     0.279700000000    -0.446857   
O2       O      0.490730000000     0.018220000000     0.399810000000    -0.446816   
O3       O      0.037710000000     0.065220000000     0.341830000000    -0.45648    
O4       O      0.447840000000     0.475350000000     0.337680000000    -0.447601   
O5       O      0.477930000000     0.445260000000     0.341810000000    -0.447609   
O6       O      0.067800000000     0.035130000000     0.337680000000    -0.445497   
O7       O      0.024920000000     0.492250000000     0.399800000000    -0.443242   
O8       O      0.020810000000     0.488150000000     0.279690000000    -0.443      
O9       O      0.477930000000     0.195260000000     0.341830000000    -0.447601   
O10      O      0.067800000000     0.285130000000     0.337670000000    -0.445173   
O11      O      0.024920000000     0.242260000000     0.399810000000    -0.443275   
O12      O      0.020800000000     0.238140000000     0.279700000000    -0.443186   
O13      O      0.494820000000     0.272320000000     0.279700000000    -0.447001   
O14      O      0.490740000000     0.268230000000     0.399810000000    -0.447055   
O15      O      0.037710000000     0.315220000000     0.341810000000    -0.456627   
O16      O      0.447840000000     0.225350000000     0.337700000000    -0.447606   
O17      O      0.317800000000     0.035130000000     0.337700000000    -0.447931   
O18      O      0.227930000000     0.445260000000     0.341810000000    -0.447621   
O19      O      0.270820000000     0.488160000000     0.279700000000    -0.446992   
O20      O      0.274900000000     0.492250000000     0.399810000000    -0.447032   
O21      O      0.240720000000     0.018220000000     0.399800000000    -0.446878   
O22      O      0.244840000000     0.022340000000     0.279690000000    -0.44674    
O23      O      0.197840000000     0.475350000000     0.337670000000    -0.447686   
O24      O      0.287710000000     0.065220000000     0.341830000000    -0.447487   
O25      O      0.197840000000     0.225350000000     0.337680000000    -0.447666   
O26      O      0.287710000000     0.315220000000     0.341810000000    -0.447586   
O27      O      0.244830000000     0.272330000000     0.279690000000    -0.446798   
O28      O      0.240730000000     0.268230000000     0.399800000000    -0.447115   
O29      O      0.274910000000     0.242260000000     0.399810000000    -0.447023   
O30      O      0.270810000000     0.238140000000     0.279700000000    -0.446832   
O31      O      0.317800000000     0.285130000000     0.337680000000    -0.447577   
O32      O      0.227930000000     0.195260000000     0.341830000000    -0.447603   
O33      O      0.037720000000     0.475180000000     0.004360000000    -0.45694    
O34      O      0.447860000000     0.475180000000     0.008480000000    -0.447613   
O35      O      0.490750000000     0.475190000000     0.946360000000    -0.444291   
O36      O      0.494840000000     0.475190000000     0.066470000000    -0.446583   
O37      O      0.020820000000     0.035340000000     0.066470000000    -0.442656   
O38      O      0.024930000000     0.035340000000     0.946360000000    -0.440448   
O39      O      0.477940000000     0.035350000000     0.004340000000    -0.44774    
O40      O      0.067810000000     0.035350000000     0.008490000000    -0.445312   
O41      O      0.067780000000     0.285300000000     0.008500000000    -0.445251   
O42      O      0.477910000000     0.285300000000     0.004340000000    -0.447717   
O43      O      0.020780000000     0.285290000000     0.066470000000    -0.442528   
O44      O      0.024900000000     0.285290000000     0.946370000000    -0.440529   
O45      O      0.490720000000     0.225130000000     0.946360000000    -0.444084   
O46      O      0.494810000000     0.225130000000     0.066480000000    -0.446272   
O47      O      0.447820000000     0.225120000000     0.008480000000    -0.447569   
O48      O      0.037690000000     0.225120000000     0.004360000000    -0.456742   
O49      O      0.287720000000     0.475180000000     0.004340000000    -0.447794   
O50      O      0.197860000000     0.475180000000     0.008490000000    -0.447661   
O51      O      0.240740000000     0.475190000000     0.946360000000    -0.444239   
O52      O      0.244860000000     0.475190000000     0.066470000000    -0.44644    
O53      O      0.270830000000     0.035350000000     0.066470000000    -0.446286   
O54      O      0.274920000000     0.035340000000     0.946360000000    -0.444162   
O55      O      0.227950000000     0.035360000000     0.004360000000    -0.44766    
O56      O      0.317810000000     0.035360000000     0.008480000000    -0.447559   
O57      O      0.227910000000     0.285300000000     0.004360000000    -0.447707   
O58      O      0.317780000000     0.285300000000     0.008480000000    -0.447679   
O59      O      0.274890000000     0.285290000000     0.946370000000    -0.444245   
O60      O      0.270790000000     0.285290000000     0.066470000000    -0.446412   
O61      O      0.244820000000     0.225140000000     0.066480000000    -0.446469   
O62      O      0.240710000000     0.225140000000     0.946360000000    -0.444294   
O63      O      0.287690000000     0.225120000000     0.004350000000    -0.447787   
O64      O      0.197830000000     0.225120000000     0.008490000000    -0.447714   
O65      O      0.037920000000     0.022330000000     0.733140000000    -0.443046   
O66      O      0.037910000000     0.018220000000     0.613030000000    -0.443294   
O67      O      0.037930000000     0.065210000000     0.671010000000    -0.443966   
O68      O      0.037930000000     0.475350000000     0.675160000000    -0.443967   
O69      O      0.477750000000     0.445260000000     0.671020000000    -0.447605   
O70      O      0.477750000000     0.035120000000     0.675150000000    -0.448009   
O71      O      0.477760000000     0.492240000000     0.613030000000    -0.446932   
O72      O      0.477760000000     0.488150000000     0.733140000000    -0.446876   
O73      O      0.037930000000     0.225350000000     0.675150000000    -0.443988   
O74      O      0.037930000000     0.315210000000     0.671030000000    -0.444017   
O75      O      0.037910000000     0.272320000000     0.733140000000    -0.443288   
O76      O      0.037920000000     0.268230000000     0.613030000000    -0.443258   
O77      O      0.477760000000     0.242260000000     0.613030000000    -0.446975   
O78      O      0.477760000000     0.238130000000     0.733140000000    -0.446938   
O79      O      0.477750000000     0.285120000000     0.675160000000    -0.447679   
O80      O      0.477750000000     0.195260000000     0.671010000000    -0.447606   
O81      O      0.227710000000     0.035130000000     0.675150000000    -0.447985   
O82      O      0.227710000000     0.445270000000     0.671020000000    -0.447704   
O83      O      0.227730000000     0.488160000000     0.733140000000    -0.447095   
O84      O      0.227720000000     0.492250000000     0.613030000000    -0.446935   
O85      O      0.287880000000     0.018220000000     0.613030000000    -0.446781   
O86      O      0.287880000000     0.022340000000     0.733140000000    -0.446604   
O87      O      0.287890000000     0.475350000000     0.675160000000    -0.44744    
O88      O      0.287890000000     0.065220000000     0.671010000000    -0.447512   
O89      O      0.227710000000     0.195260000000     0.671010000000    -0.447514   
O90      O      0.227710000000     0.285130000000     0.675160000000    -0.447646   
O91      O      0.227730000000     0.242260000000     0.613030000000    -0.447041   
O92      O      0.227720000000     0.238140000000     0.733140000000    -0.446968   
O93      O      0.287870000000     0.272330000000     0.733140000000    -0.446928   
O94      O      0.287880000000     0.268230000000     0.613040000000    -0.447045   
O95      O      0.287890000000     0.315220000000     0.671030000000    -0.447633   
O96      O      0.287890000000     0.225350000000     0.675150000000    -0.447491   
O97      O      0.494840000000     0.522340000000     0.279700000000    -0.446979   
O98      O      0.490730000000     0.518220000000     0.399810000000    -0.446972   
O99      O      0.037710000000     0.565220000000     0.341830000000    -0.456596   
O100     O      0.447840000000     0.975350000000     0.337680000000    -0.447225   
O101     O      0.477930000000     0.945260000000     0.341810000000    -0.447655   
O102     O      0.067800000000     0.535130000000     0.337680000000    -0.445153   
O103     O      0.024910000000     0.992250000000     0.399800000000    -0.443009   
O104     O      0.020810000000     0.988150000000     0.279690000000    -0.442616   
O105     O      0.477930000000     0.695260000000     0.341830000000    -0.447598   
O106     O      0.067800000000     0.785130000000     0.337670000000    -0.445187   
O107     O      0.024920000000     0.742260000000     0.399800000000    -0.443391   
O108     O      0.020800000000     0.738140000000     0.279690000000    -0.44306    
O109     O      0.494820000000     0.772320000000     0.279690000000    -0.446901   
O110     O      0.490740000000     0.768240000000     0.399800000000    -0.446935   
O111     O      0.037710000000     0.815220000000     0.341810000000    -0.456602   
O112     O      0.447840000000     0.725350000000     0.337690000000    -0.447596   
O113     O      0.317800000000     0.535130000000     0.337700000000    -0.447597   
O114     O      0.227930000000     0.945260000000     0.341810000000    -0.44767    
O115     O      0.270820000000     0.988160000000     0.279700000000    -0.446589   
O116     O      0.274900000000     0.992250000000     0.399810000000    -0.446624   
O117     O      0.240720000000     0.518220000000     0.399800000000    -0.447029   
O118     O      0.244840000000     0.522340000000     0.279700000000    -0.447008   
O119     O      0.197840000000     0.975350000000     0.337670000000    -0.447289   
O120     O      0.287710000000     0.565220000000     0.341830000000    -0.447594   
O121     O      0.197840000000     0.725350000000     0.337680000000    -0.447679   
O122     O      0.287710000000     0.815220000000     0.341810000000    -0.447572   
O123     O      0.244830000000     0.772330000000     0.279690000000    -0.446821   
O124     O      0.240730000000     0.768230000000     0.399800000000    -0.447023   
O125     O      0.274910000000     0.742260000000     0.399810000000    -0.446941   
O126     O      0.270810000000     0.738140000000     0.279700000000    -0.446852   
O127     O      0.317800000000     0.785130000000     0.337680000000    -0.447588   
O128     O      0.227930000000     0.695260000000     0.341820000000    -0.447607   
O129     O      0.037720000000     0.975180000000     0.004350000000    -0.45652    
O130     O      0.447860000000     0.975180000000     0.008480000000    -0.447354   
O131     O      0.490750000000     0.975190000000     0.946360000000    -0.443927   
O132     O      0.494840000000     0.975190000000     0.066470000000    -0.446236   
O133     O      0.020820000000     0.535340000000     0.066470000000    -0.442766   
O134     O      0.024930000000     0.535340000000     0.946360000000    -0.44056    
O135     O      0.477940000000     0.535350000000     0.004340000000    -0.447779   
O136     O      0.067810000000     0.535350000000     0.008490000000    -0.445441   
O137     O      0.067780000000     0.785300000000     0.008490000000    -0.445245   
O138     O      0.477910000000     0.785300000000     0.004340000000    -0.447714   
O139     O      0.020780000000     0.785290000000     0.066470000000    -0.442469   
O140     O      0.024900000000     0.785290000000     0.946360000000    -0.440568   
O141     O      0.490720000000     0.725130000000     0.946360000000    -0.444219   
O142     O      0.494810000000     0.725130000000     0.066470000000    -0.446312   
O143     O      0.447820000000     0.725120000000     0.008470000000    -0.447596   
O144     O      0.037690000000     0.725120000000     0.004350000000    -0.456762   
O145     O      0.287720000000     0.975180000000     0.004340000000    -0.447415   
O146     O      0.197860000000     0.975180000000     0.008490000000    -0.44737    
O147     O      0.240740000000     0.975190000000     0.946360000000    -0.443858   
O148     O      0.244860000000     0.975190000000     0.066470000000    -0.446061   
O149     O      0.270830000000     0.535350000000     0.066470000000    -0.446422   
O150     O      0.274920000000     0.535340000000     0.946360000000    -0.444294   
O151     O      0.227950000000     0.535360000000     0.004360000000    -0.447707   
O152     O      0.317810000000     0.535360000000     0.008480000000    -0.447693   
O153     O      0.227910000000     0.785300000000     0.004350000000    -0.447687   
O154     O      0.317780000000     0.785300000000     0.008480000000    -0.447656   
O155     O      0.274890000000     0.785290000000     0.946360000000    -0.444292   
O156     O      0.270790000000     0.785290000000     0.066470000000    -0.446445   
O157     O      0.244820000000     0.725140000000     0.066470000000    -0.446415   
O158     O      0.240710000000     0.725140000000     0.946360000000    -0.444432   
O159     O      0.287690000000     0.725120000000     0.004340000000    -0.447794   
O160     O      0.197830000000     0.725120000000     0.008490000000    -0.447719   
O161     O      0.037920000000     0.522330000000     0.733140000000    -0.443202   
O162     O      0.037910000000     0.518220000000     0.613030000000    -0.443382   
O163     O      0.037930000000     0.565210000000     0.671010000000    -0.443933   
O164     O      0.037930000000     0.975350000000     0.675160000000    -0.443624   
O165     O      0.477750000000     0.945260000000     0.671020000000    -0.447538   
O166     O      0.477750000000     0.535120000000     0.675150000000    -0.447499   
O167     O      0.477760000000     0.992240000000     0.613030000000    -0.446624   
O168     O      0.477760000000     0.988150000000     0.733140000000    -0.446464   
O169     O      0.037930000000     0.725340000000     0.675150000000    -0.443901   
O170     O      0.037930000000     0.815210000000     0.671020000000    -0.44397    
O171     O      0.037910000000     0.772320000000     0.733140000000    -0.443147   
O172     O      0.037920000000     0.768230000000     0.613030000000    -0.443233   
O173     O      0.477760000000     0.742260000000     0.613030000000    -0.446942   
O174     O      0.477760000000     0.738130000000     0.733130000000    -0.446985   
O175     O      0.477750000000     0.785120000000     0.675160000000    -0.447687   
O176     O      0.477750000000     0.695260000000     0.671000000000    -0.447611   
O177     O      0.227710000000     0.535130000000     0.675150000000    -0.447524   
O178     O      0.227710000000     0.945270000000     0.671020000000    -0.447645   
O179     O      0.227720000000     0.988160000000     0.733140000000    -0.446513   
O180     O      0.227720000000     0.992250000000     0.613030000000    -0.446604   
O181     O      0.287880000000     0.518220000000     0.613030000000    -0.446912   
O182     O      0.287880000000     0.522340000000     0.733140000000    -0.446818   
O183     O      0.287890000000     0.975350000000     0.675160000000    -0.447035   
O184     O      0.287890000000     0.565220000000     0.671010000000    -0.447567   
O185     O      0.227710000000     0.695260000000     0.671000000000    -0.447509   
O186     O      0.227710000000     0.785130000000     0.675150000000    -0.447651   
O187     O      0.227730000000     0.742260000000     0.613020000000    -0.446975   
O188     O      0.227720000000     0.738140000000     0.733130000000    -0.446998   
O189     O      0.287870000000     0.772330000000     0.733140000000    -0.446795   
O190     O      0.287880000000     0.768230000000     0.613030000000    -0.447033   
O191     O      0.287890000000     0.815220000000     0.671020000000    -0.447606   
O192     O      0.287890000000     0.725350000000     0.675150000000    -0.447462   
O193     O      0.994840000000     0.022340000000     0.279700000000    -0.435408   
O194     O      0.990730000000     0.018220000000     0.399810000000    -0.437468   
O195     O      0.537710000000     0.065220000000     0.341830000000    -0.447499   
O196     O      0.947840000000     0.475350000000     0.337680000000    -0.448833   
O197     O      0.977930000000     0.445260000000     0.341810000000    -0.437217   
O198     O      0.567800000000     0.035130000000     0.337680000000    -0.447928   
O199     O      0.524920000000     0.492250000000     0.399800000000    -0.44692    
O200     O      0.520810000000     0.488150000000     0.279690000000    -0.446842   
O201     O      0.977930000000     0.195260000000     0.341830000000    -0.437218   
O202     O      0.567800000000     0.285130000000     0.337670000000    -0.447607   
O203     O      0.524920000000     0.242260000000     0.399810000000    -0.446949   
O204     O      0.520800000000     0.238140000000     0.279700000000    -0.446981   
O205     O      0.994830000000     0.272320000000     0.279700000000    -0.435653   
O206     O      0.990740000000     0.268230000000     0.399810000000    -0.437675   
O207     O      0.537710000000     0.315220000000     0.341810000000    -0.447627   
O208     O      0.947840000000     0.225350000000     0.337700000000    -0.448851   
O209     O      0.817800000000     0.035130000000     0.337700000000    -0.447682   
O210     O      0.727930000000     0.445260000000     0.341810000000    -0.447627   
O211     O      0.770820000000     0.488160000000     0.279700000000    -0.446822   
O212     O      0.774900000000     0.492250000000     0.399810000000    -0.446973   
O213     O      0.740720000000     0.018220000000     0.399800000000    -0.446847   
O214     O      0.744850000000     0.022340000000     0.279690000000    -0.446841   
O215     O      0.697840000000     0.475350000000     0.337670000000    -0.447636   
O216     O      0.787710000000     0.065220000000     0.341830000000    -0.44743    
O217     O      0.697840000000     0.225350000000     0.337680000000    -0.447618   
O218     O      0.787710000000     0.315220000000     0.341810000000    -0.447531   
O219     O      0.744830000000     0.272330000000     0.279690000000    -0.446753   
O220     O      0.740730000000     0.268230000000     0.399800000000    -0.447071   
O221     O      0.774910000000     0.242260000000     0.399810000000    -0.446961   
O222     O      0.770810000000     0.238140000000     0.279700000000    -0.446662   
O223     O      0.817800000000     0.285130000000     0.337680000000    -0.44734    
O224     O      0.727930000000     0.195260000000     0.341830000000    -0.447612   
O225     O      0.537730000000     0.475180000000     0.004360000000    -0.447882   
O226     O      0.947860000000     0.475180000000     0.008480000000    -0.44885    
O227     O      0.990750000000     0.475190000000     0.946360000000    -0.434938   
O228     O      0.994840000000     0.475190000000     0.066470000000    -0.43503    
O229     O      0.520820000000     0.035340000000     0.066470000000    -0.446361   
O230     O      0.524930000000     0.035340000000     0.946360000000    -0.444054   
O231     O      0.977950000000     0.035350000000     0.004340000000    -0.437371   
O232     O      0.567810000000     0.035350000000     0.008490000000    -0.447608   
O233     O      0.567780000000     0.285300000000     0.008500000000    -0.447681   
O234     O      0.977910000000     0.285300000000     0.004340000000    -0.437339   
O235     O      0.520780000000     0.285290000000     0.066470000000    -0.446359   
O236     O      0.524900000000     0.285290000000     0.946370000000    -0.444181   
O237     O      0.990720000000     0.225130000000     0.946360000000    -0.434729   
O238     O      0.994810000000     0.225130000000     0.066480000000    -0.434786   
O239     O      0.947820000000     0.225120000000     0.008480000000    -0.448806   
O240     O      0.537690000000     0.225120000000     0.004360000000    -0.447754   
O241     O      0.787720000000     0.475180000000     0.004340000000    -0.447749   
O242     O      0.697860000000     0.475180000000     0.008490000000    -0.4476     
O243     O      0.740730000000     0.475190000000     0.946360000000    -0.444174   
O244     O      0.744860000000     0.475190000000     0.066470000000    -0.446391   
O245     O      0.770830000000     0.035350000000     0.066470000000    -0.446087   
O246     O      0.774920000000     0.035340000000     0.946360000000    -0.444083   
O247     O      0.727940000000     0.035360000000     0.004360000000    -0.4476     
O248     O      0.817810000000     0.035360000000     0.008480000000    -0.447206   
O249     O      0.727910000000     0.285300000000     0.004360000000    -0.447699   
O250     O      0.817780000000     0.285300000000     0.008480000000    -0.447422   
O251     O      0.774890000000     0.285290000000     0.946360000000    -0.444141   
O252     O      0.770790000000     0.285290000000     0.066470000000    -0.446217   
O253     O      0.744820000000     0.225140000000     0.066480000000    -0.446423   
O254     O      0.740710000000     0.225140000000     0.946360000000    -0.444276   
O255     O      0.787690000000     0.225120000000     0.004350000000    -0.447734   
O256     O      0.697830000000     0.225120000000     0.008490000000    -0.447668   
O257     O      0.537920000000     0.022330000000     0.733140000000    -0.446674   
O258     O      0.537910000000     0.018210000000     0.613030000000    -0.446998   
O259     O      0.537930000000     0.065210000000     0.671010000000    -0.447566   
O260     O      0.537930000000     0.475350000000     0.675160000000    -0.447607   
O261     O      0.977750000000     0.445260000000     0.671020000000    -0.437299   
O262     O      0.977750000000     0.035130000000     0.675150000000    -0.43768    
O263     O      0.977760000000     0.492240000000     0.613030000000    -0.436725   
O264     O      0.977770000000     0.488150000000     0.733140000000    -0.436718   
O265     O      0.537930000000     0.225340000000     0.675150000000    -0.447554   
O266     O      0.537930000000     0.315210000000     0.671030000000    -0.447611   
O267     O      0.537910000000     0.272320000000     0.733140000000    -0.44692    
O268     O      0.537920000000     0.268230000000     0.613030000000    -0.446887   
O269     O      0.977760000000     0.242260000000     0.613030000000    -0.436699   
O270     O      0.977760000000     0.238130000000     0.733140000000    -0.436659   
O271     O      0.977750000000     0.285120000000     0.675160000000    -0.437415   
O272     O      0.977750000000     0.195260000000     0.671010000000    -0.437316   
O273     O      0.727710000000     0.035130000000     0.675150000000    -0.447956   
O274     O      0.727710000000     0.445270000000     0.671020000000    -0.447703   
O275     O      0.727730000000     0.488160000000     0.733140000000    -0.446969   
O276     O      0.727720000000     0.492250000000     0.613030000000    -0.446985   
O277     O      0.787880000000     0.018220000000     0.613030000000    -0.446699   
O278     O      0.787880000000     0.022340000000     0.733140000000    -0.446517   
O279     O      0.787890000000     0.475350000000     0.675160000000    -0.447456   
O280     O      0.787890000000     0.065220000000     0.671010000000    -0.447403   
O281     O      0.727710000000     0.195260000000     0.671010000000    -0.447449   
O282     O      0.727710000000     0.285130000000     0.675160000000    -0.447699   
O283     O      0.727730000000     0.242260000000     0.613030000000    -0.447103   
O284     O      0.727720000000     0.238140000000     0.733140000000    -0.44685    
O285     O      0.787870000000     0.272330000000     0.733140000000    -0.446914   
O286     O      0.787880000000     0.268230000000     0.613040000000    -0.446859   
O287     O      0.787890000000     0.315220000000     0.671030000000    -0.447586   
O288     O      0.787890000000     0.225350000000     0.675150000000    -0.44743    
O289     O      0.994840000000     0.522340000000     0.279700000000    -0.435476   
O290     O      0.990730000000     0.518220000000     0.399810000000    -0.437587   
O291     O      0.537710000000     0.565220000000     0.341830000000    -0.447589   
O292     O      0.947840000000     0.975350000000     0.337680000000    -0.448487   
O293     O      0.977930000000     0.945260000000     0.341810000000    -0.437316   
O294     O      0.567800000000     0.535130000000     0.337680000000    -0.447584   
O295     O      0.524910000000     0.992250000000     0.399800000000    -0.446664   
O296     O      0.520810000000     0.988150000000     0.279690000000    -0.446437   
O297     O      0.977930000000     0.695260000000     0.341830000000    -0.437216   
O298     O      0.567800000000     0.785130000000     0.337670000000    -0.447601   
O299     O      0.524920000000     0.742260000000     0.399800000000    -0.446916   
O300     O      0.520800000000     0.738140000000     0.279690000000    -0.446891   
O301     O      0.994820000000     0.772320000000     0.279690000000    -0.435429   
O302     O      0.990740000000     0.768230000000     0.399800000000    -0.437616   
O303     O      0.537710000000     0.815220000000     0.341810000000    -0.447599   
O304     O      0.947840000000     0.725350000000     0.337690000000    -0.44882    
O305     O      0.817800000000     0.535130000000     0.337700000000    -0.447356   
O306     O      0.727930000000     0.945260000000     0.341810000000    -0.44768    
O307     O      0.770820000000     0.988160000000     0.279700000000    -0.446484   
O308     O      0.774900000000     0.992250000000     0.399810000000    -0.446585   
O309     O      0.740720000000     0.518220000000     0.399800000000    -0.446986   
O310     O      0.744840000000     0.522340000000     0.279700000000    -0.446962   
O311     O      0.697840000000     0.975350000000     0.337670000000    -0.447262   
O312     O      0.787710000000     0.565220000000     0.341830000000    -0.447537   
O313     O      0.697840000000     0.725350000000     0.337680000000    -0.44763    
O314     O      0.787710000000     0.815220000000     0.341810000000    -0.447516   
O315     O      0.744830000000     0.772330000000     0.279690000000    -0.446775   
O316     O      0.740730000000     0.768230000000     0.399800000000    -0.44698    
O317     O      0.774910000000     0.742260000000     0.399810000000    -0.446883   
O318     O      0.770810000000     0.738140000000     0.279700000000    -0.446682   
O319     O      0.817800000000     0.785130000000     0.337680000000    -0.447348   
O320     O      0.727930000000     0.695260000000     0.341820000000    -0.447616   
O321     O      0.537720000000     0.975180000000     0.004350000000    -0.447474   
O322     O      0.947860000000     0.975180000000     0.008480000000    -0.448486   
O323     O      0.990750000000     0.975190000000     0.946360000000    -0.434614   
O324     O      0.994840000000     0.975190000000     0.066470000000    -0.43473    
O325     O      0.520810000000     0.535340000000     0.066470000000    -0.44648    
O326     O      0.524930000000     0.535340000000     0.946360000000    -0.444192   
O327     O      0.977950000000     0.535350000000     0.004340000000    -0.437469   
O328     O      0.567810000000     0.535350000000     0.008490000000    -0.44788    
O329     O      0.567780000000     0.785300000000     0.008490000000    -0.447666   
O330     O      0.977910000000     0.785300000000     0.004340000000    -0.437343   
O331     O      0.520780000000     0.785290000000     0.066470000000    -0.446312   
O332     O      0.524900000000     0.785290000000     0.946360000000    -0.444223   
O333     O      0.990720000000     0.725130000000     0.946360000000    -0.434871   
O334     O      0.994810000000     0.725130000000     0.066470000000    -0.434853   
O335     O      0.947820000000     0.725120000000     0.008470000000    -0.448824   
O336     O      0.537690000000     0.725120000000     0.004350000000    -0.447765   
O337     O      0.787720000000     0.975180000000     0.004340000000    -0.447291   
O338     O      0.697860000000     0.975180000000     0.008490000000    -0.447353   
O339     O      0.740740000000     0.975190000000     0.946360000000    -0.443822   
O340     O      0.744860000000     0.975190000000     0.066470000000    -0.446033   
O341     O      0.770830000000     0.535350000000     0.066470000000    -0.446252   
O342     O      0.774920000000     0.535340000000     0.946360000000    -0.44423    
O343     O      0.727950000000     0.535360000000     0.004360000000    -0.447714   
O344     O      0.817810000000     0.535360000000     0.008480000000    -0.447455   
O345     O      0.727910000000     0.785300000000     0.004350000000    -0.447714   
O346     O      0.817780000000     0.785300000000     0.008480000000    -0.447399   
O347     O      0.774890000000     0.785290000000     0.946360000000    -0.444237   
O348     O      0.770790000000     0.785290000000     0.066470000000    -0.446275   
O349     O      0.744820000000     0.725140000000     0.066470000000    -0.446362   
O350     O      0.740710000000     0.725140000000     0.946360000000    -0.444394   
O351     O      0.787690000000     0.725120000000     0.004340000000    -0.447616   
O352     O      0.697830000000     0.725120000000     0.008490000000    -0.447793   
O353     O      0.537920000000     0.522330000000     0.733140000000    -0.446804   
O354     O      0.537910000000     0.518220000000     0.613030000000    -0.447128   
O355     O      0.537930000000     0.565210000000     0.671010000000    -0.447528   
O356     O      0.537930000000     0.975350000000     0.675160000000    -0.447141   
O357     O      0.977750000000     0.945260000000     0.671020000000    -0.43736    
O358     O      0.977750000000     0.535130000000     0.675150000000    -0.437185   
O359     O      0.977760000000     0.992240000000     0.613030000000    -0.436489   
O360     O      0.977760000000     0.988150000000     0.733140000000    -0.436236   
O361     O      0.537930000000     0.725340000000     0.675150000000    -0.447548   
O362     O      0.537930000000     0.815210000000     0.671020000000    -0.447597   
O363     O      0.537910000000     0.772320000000     0.733140000000    -0.446812   
O364     O      0.537920000000     0.768230000000     0.613030000000    -0.4469     
O365     O      0.977760000000     0.742260000000     0.613030000000    -0.43662    
O366     O      0.977760000000     0.738130000000     0.733130000000    -0.436668   
O367     O      0.977750000000     0.785130000000     0.675160000000    -0.437278   
O368     O      0.977750000000     0.695260000000     0.671000000000    -0.437345   
O369     O      0.727710000000     0.535130000000     0.675150000000    -0.447488   
O370     O      0.727710000000     0.945270000000     0.671020000000    -0.447634   
O371     O      0.727720000000     0.988160000000     0.733140000000    -0.446479   
O372     O      0.727720000000     0.992250000000     0.613030000000    -0.446572   
O373     O      0.787880000000     0.518220000000     0.613030000000    -0.446839   
O374     O      0.787880000000     0.522340000000     0.733140000000    -0.446707   
O375     O      0.787890000000     0.975350000000     0.675160000000    -0.447063   
O376     O      0.787890000000     0.565220000000     0.671010000000    -0.447448   
O377     O      0.727710000000     0.695260000000     0.671000000000    -0.447472   
O378     O      0.727710000000     0.785130000000     0.675150000000    -0.447607   
O379     O      0.727730000000     0.742260000000     0.613020000000    -0.446907   
O380     O      0.727720000000     0.738140000000     0.733130000000    -0.446848   
O381     O      0.787870000000     0.772330000000     0.733140000000    -0.446767   
O382     O      0.787880000000     0.768230000000     0.613030000000    -0.44692    
O383     O      0.787890000000     0.815220000000     0.671020000000    -0.447528   
O384     O      0.787890000000     0.725350000000     0.675150000000    -0.447392   


