data_structure

_audit_creation_method RASPA-1.0
_audit_creation_date 2023-6-5
_audit_author_name 'Poobodin Mano'

_cell_length_a    34.7759
_cell_length_b    34.8825
_cell_length_c    41.6562
_cell_angle_alpha 89.9798
_cell_angle_beta  90.0203
_cell_angle_gamma 119.983
_cell_volume      43769.4

_symmetry_cell_setting          triclinic
_symmetry_space_group_name_Hall 'P 1'
_symmetry_space_group_name_H-M  'P 1'
_symmetry_Int_Tables_number     1

_symmetry_equiv_pos_as_xyz 'x,y,z'

loop_
_atom_site_label
_atom_site_type_symbol
_atom_site_fract_x
_atom_site_fract_y
_atom_site_fract_z
_atom_site_charge
Br1      Br     0.628800000000     0.957950000000     0.369240000000    -0.22088    
Br2      Br     0.808980000000     0.298340000000     0.286250000000    -0.175346   
Br3      Br     0.020870000000     0.701100000000     0.152530000000    -0.210088   
Br4      Br     0.508300000000     0.698890000000     0.409920000000    -0.184044   
Br5      Br     0.192700000000     0.044490000000     0.095110000000    -0.197916   
Br6      Br     0.526370000000     0.378090000000     0.007340000000    -0.211216   
Br7      Br     0.756000000000     0.867570000000     0.300490000000    -0.217157   
Br8      Br     0.551930000000     0.789400000000     0.475990000000    -0.186775   
Br9      Br     0.848870000000     0.808460000000     0.085570000000    -0.201578   
Br10     Br     0.507230000000     0.793540000000     0.178370000000    -0.20408    
Br11     Br     0.987370000000     0.592670000000     0.382610000000    -0.227036   
Br12     Br     0.096470000000     0.511490000000     0.059770000000    -0.203644   
Br13     Br     0.799210000000     0.514560000000     0.018980000000    -0.206995   
Br14     Br     0.235090000000     0.073300000000     0.462840000000    -0.205667   
Br15     Br     0.236540000000     0.164900000000     0.210710000000    -0.201997   
Br16     Br     0.334040000000     0.972010000000     0.234820000000    -0.197284   
Br17     Br     0.996630000000     0.410570000000     0.388800000000    -0.27318    
Br18     Br     0.321820000000     0.365530000000     0.362530000000    -0.204077   
Br19     Br     0.406910000000     0.498400000000     0.309800000000    -0.201241   
Br20     Br     0.489820000000     0.584200000000     0.061060000000    -0.21043    
Br21     Br     0.820110000000     0.258830000000     0.394360000000    -0.191439   
Br22     Br     0.760390000000     0.203560000000     0.219280000000    -0.198182   
Br23     Br     0.101910000000     0.244920000000     0.295700000000    -0.214763   
Br24     Br     0.133210000000     0.241320000000     0.045020000000    -0.213159   
Br25     Br     0.043180000000     0.369950000000     0.111930000000    -0.207962   
Br26     Br     0.368890000000     0.344430000000     0.199740000000    -0.205551   
Br27     Br     0.411370000000     0.984890000000     0.313080000000    -0.189564   
Br28     Br     0.413540000000     0.893490000000     0.062330000000    -0.207479   
Br29     Br     0.615630000000     0.150820000000     0.004280000000    -0.207229   
Br30     Br     0.235300000000     0.792210000000     0.223500000000    -0.209729   
Br31     Br     0.169180000000     0.735430000000     0.046640000000    -0.205611   
Br32     Br     0.414750000000     0.989480000000     0.392460000000    -0.324765   
Br33     Br     0.834840000000     0.759060000000     0.464280000000    -0.201823   
Br34     Br     0.798400000000     0.561810000000     0.217340000000    -0.194397   
Br35     Br     0.705640000000     0.512250000000     0.282150000000    -0.190303   
Br36     Br     0.954260000000     0.806820000000     0.339540000000    -0.204236   
Br37     Br     0.628800000000     0.957950000000     0.869240000000    -0.2209     
Br38     Br     0.808980000000     0.298340000000     0.786250000000    -0.175344   
Br39     Br     0.020870000000     0.701110000000     0.652530000000    -0.210068   
Br40     Br     0.508300000000     0.698890000000     0.909920000000    -0.184058   
Br41     Br     0.192700000000     0.044490000000     0.595110000000    -0.197933   
Br42     Br     0.526370000000     0.378090000000     0.507340000000    -0.211271   
Br43     Br     0.756000000000     0.867580000000     0.800490000000    -0.21715    
Br44     Br     0.551930000000     0.789400000000     0.975990000000    -0.186796   
Br45     Br     0.848870000000     0.808460000000     0.585570000000    -0.201594   
Br46     Br     0.507230000000     0.793540000000     0.678370000000    -0.204078   
Br47     Br     0.987370000000     0.592680000000     0.882610000000    -0.227015   
Br48     Br     0.096470000000     0.511490000000     0.559760000000    -0.203635   
Br49     Br     0.799210000000     0.514560000000     0.518980000000    -0.20705    
Br50     Br     0.235090000000     0.073300000000     0.962840000000    -0.205722   
Br51     Br     0.236540000000     0.164900000000     0.710710000000    -0.201994   
Br52     Br     0.334040000000     0.972010000000     0.734820000000    -0.197294   
Br53     Br     0.996630000000     0.410570000000     0.888800000000    -0.273186   
Br54     Br     0.321820000000     0.365530000000     0.862530000000    -0.204078   
Br55     Br     0.406910000000     0.498390000000     0.809800000000    -0.201243   
Br56     Br     0.489820000000     0.584200000000     0.561060000000    -0.210476   
Br57     Br     0.820110000000     0.258830000000     0.894360000000    -0.191455   
Br58     Br     0.760390000000     0.203560000000     0.719280000000    -0.198181   
Br59     Br     0.101910000000     0.244920000000     0.795700000000    -0.214772   
Br60     Br     0.133210000000     0.241320000000     0.545020000000    -0.213187   
Br61     Br     0.043180000000     0.369940000000     0.611930000000    -0.207995   
Br62     Br     0.368890000000     0.344430000000     0.699740000000    -0.205541   
Br63     Br     0.411370000000     0.984890000000     0.813080000000    -0.189564   
Br64     Br     0.413540000000     0.893490000000     0.562330000000    -0.20752    
Br65     Br     0.615630000000     0.150820000000     0.504280000000    -0.20729    
Br66     Br     0.235300000000     0.792210000000     0.723500000000    -0.209714   
Br67     Br     0.169180000000     0.735430000000     0.546650000000    -0.205615   
Br68     Br     0.414750000000     0.989480000000     0.892460000000    -0.324784   
Br69     Br     0.834840000000     0.759060000000     0.964290000000    -0.201843   
Br70     Br     0.798400000000     0.561810000000     0.717340000000    -0.194398   
Br71     Br     0.705640000000     0.512250000000     0.782150000000    -0.190308   
Br72     Br     0.954260000000     0.806820000000     0.839540000000    -0.204238   
C1       C      0.851420000000     0.661140000000     0.245600000000     0.444893   
C2       C      0.812640000000     0.660130000000     0.364180000000     0.434263   
C3       C      0.751200000000     0.620210000000     0.288520000000     0.445811   
C4       C      0.914840000000     0.702240000000     0.321960000000     0.444967   
C5       C      0.147620000000     0.810750000000     0.445540000000     0.433439   
C6       C      0.190540000000     0.843090000000     0.327140000000     0.436371   
C7       C      0.249970000000     0.866990000000     0.403910000000     0.43731    
C8       C      0.087500000000     0.786270000000     0.368830000000     0.434474   
C9       C      0.510190000000     0.006610000000     0.415880000000     0.447596   
C10      C      0.476270000000     0.990830000000     0.034710000000     0.457204   
C11      C      0.414310000000     0.952680000000     0.459900000000     0.458239   
C12      C      0.577520000000     0.045160000000     0.990700000000     0.446228   
C13      C      0.148490000000     0.339670000000     0.192970000000     0.437631   
C14      C      0.186670000000     0.339900000000     0.074730000000     0.447876   
C15      C      0.248910000000     0.374550000000     0.150910000000     0.436456   
C16      C      0.086140000000     0.305170000000     0.117380000000     0.446135   
C17      C      0.851120000000     0.192520000000     0.996730000000     0.434727   
C18      C      0.809830000000     0.158340000000     0.115280000000     0.433155   
C19      C      0.749430000000     0.133540000000     0.038770000000     0.43506    
C20      C      0.912420000000     0.219010000000     0.072830000000     0.434941   
C21      C      0.520300000000     0.513440000000     0.161200000000     0.432644   
C22      C      0.477570000000     0.475620000000     0.279330000000     0.449081   
C23      C      0.418140000000     0.452490000000     0.202800000000     0.449393   
C24      C      0.580570000000     0.536480000000     0.238240000000     0.434826   
C25      C      0.152270000000     0.344240000000     0.324820000000     0.447431   
C26      C      0.186980000000     0.338530000000     0.443130000000     0.436491   
C27      C      0.213430000000     0.304230000000     0.367120000000     0.44542    
C28      C      0.126830000000     0.380490000000     0.401310000000     0.434754   
C29      C      0.332370000000     0.148580000000     0.361630000000     0.433884   
C30      C      0.328780000000     0.186700000000     0.243340000000     0.448847   
C31      C      0.295200000000     0.213780000000     0.319930000000     0.437126   
C32      C      0.364770000000     0.121410000000     0.284730000000     0.435357   
C33      C      0.001150000000     0.482630000000     0.029720000000     0.451637   
C34      C      0.990490000000     0.510750000000     0.411040000000     0.457186   
C35      C      0.952990000000     0.536630000000     0.986830000000     0.438558   
C36      C      0.039460000000     0.460740000000     0.452980000000     0.451068   
C37      C      0.647050000000     0.840240000000     0.080020000000     0.433947   
C38      C      0.659990000000     0.807110000000     0.197880000000     0.433994   
C39      C      0.695360000000     0.784360000000     0.120270000000     0.433907   
C40      C      0.611080000000     0.861270000000     0.158640000000     0.444188   
C41      C      0.843440000000     0.656930000000     0.113670000000     0.435192   
C42      C      0.807270000000     0.665010000000     0.995660000000     0.447151   
C43      C      0.785010000000     0.701950000000     0.072620000000     0.445388   
C44      C      0.864840000000     0.619510000000     0.036190000000     0.444594   
C45      C      0.495380000000     0.982980000000     0.284950000000     0.456549   
C46      C      0.472360000000     0.989460000000     0.165570000000     0.443671   
C47      C      0.442860000000     0.027690000000     0.237650000000     0.450832   
C48      C      0.526060000000     0.945190000000     0.211490000000     0.435336   
C49      C      0.329910000000     0.140910000000     0.993340000000     0.44608    
C50      C      0.336180000000     0.183930000000     0.111550000000     0.434599   
C51      C      0.372940000000     0.243720000000     0.034930000000     0.434627   
C52      C      0.294540000000     0.081760000000     0.070680000000     0.446734   
C53      C      0.517860000000     0.518180000000     0.029310000000     0.446373   
C54      C      0.481590000000     0.475460000000     0.411030000000     0.434694   
C55      C      0.460010000000     0.415640000000     0.987900000000     0.444995   
C56      C      0.538920000000     0.577870000000     0.452710000000     0.4366     
C57      C      0.191500000000     0.847620000000     0.195280000000     0.44851    
C58      C      0.151300000000     0.809030000000     0.077140000000     0.449009   
C59      C      0.128860000000     0.747790000000     0.152520000000     0.449671   
C60      C      0.213750000000     0.910850000000     0.119500000000     0.435877   
C61      C      0.005030000000     0.515870000000     0.280130000000     0.438593   
C62      C      0.997330000000     0.478110000000     0.161390000000     0.438413   
C63      C      0.958430000000     0.415860000000     0.237500000000     0.434763   
C64      C      0.042920000000     0.578550000000     0.204130000000     0.435152   
C65      C      0.803540000000     0.147090000000     0.247190000000     0.443518   
C66      C      0.842820000000     0.187350000000     0.365290000000     0.448072   
C67      C      0.866110000000     0.246660000000     0.289230000000     0.44867    
C68      C      0.778400000000     0.084110000000     0.323960000000     0.431827   
C69      C      0.651380000000     0.847630000000     0.448120000000     0.444462   
C70      C      0.657160000000     0.813020000000     0.329530000000     0.445391   
C71      C      0.617040000000     0.749070000000     0.404540000000     0.445745   
C72      C      0.691500000000     0.912880000000     0.372890000000     0.443745   
C73      C      0.777840000000     0.018570000000     0.340510000000     0.0333279  
C74      C      0.712060000000     0.021920000000     0.343810000000    -9.71385e-06
C75      C      0.756010000000     0.976230000000     0.353780000000     0.0401331  
C76      C      0.689600000000     0.979000000000     0.356830000000     0.157309   
C77      C      0.955720000000     0.349220000000     0.254700000000     0.0349362  
C78      C      0.892140000000     0.356400000000     0.258770000000     0.00298214 
C79      C      0.932210000000     0.307000000000     0.268330000000     0.0417758  
C80      C      0.868640000000     0.314710000000     0.273120000000     0.162196   
C81      C      0.109370000000     0.643330000000     0.187590000000     0.0362468  
C82      C      0.040430000000     0.640160000000     0.182390000000     0.00109483 
C83      C      0.130310000000     0.685280000000     0.173420000000     0.044626   
C84      C      0.061010000000     0.682010000000     0.168140000000     0.15966    
C85      C      0.603130000000     0.644390000000     0.435380000000     0.0354338  
C86      C      0.532780000000     0.638530000000     0.433470000000     0.00463801 
C87      C      0.622210000000     0.687350000000     0.422970000000     0.0397619  
C88      C      0.551250000000     0.680840000000     0.420170000000     0.159485   
C89      C      0.277630000000     0.974600000000     0.098320000000     0.0350647  
C90      C      0.211110000000     0.975560000000     0.106140000000     0.00177325 
C91      C      0.297330000000     0.017550000000     0.085810000000     0.0412631  
C92      C      0.230320000000     0.018290000000     0.093510000000     0.15842    
C93      C      0.371690000000     0.307420000000     0.015420000000     0.0337091  
C94      C      0.439710000000     0.308650000000     0.020330000000     0.000288723
C95      C      0.394110000000     0.350590000000     0.003400000000     0.0401776  
C96      C      0.462470000000     0.351760000000     0.008180000000     0.155927   
C97      C      0.622080000000     0.777820000000     0.247100000000     0.0329233  
C98      C      0.699430000000     0.826420000000     0.247210000000     0.000691066
C99      C      0.621440000000     0.781220000000     0.280480000000     0.0419989  
C100     C      0.699450000000     0.828110000000     0.280790000000     0.156762   
C101     C      0.684770000000     0.874490000000     0.031680000000     0.0328455  
C102     C      0.607890000000     0.823930000000     0.030430000000     0.003427   
C103     C      0.685780000000     0.875220000000     0.998190000000     0.041101   
C104     C      0.608130000000     0.826610000000     0.996820000000     0.155364   
C105     C      0.695960000000     0.719910000000     0.101900000000     0.0334963  
C106     C      0.762520000000     0.788300000000     0.103290000000     0.00104224 
C107     C      0.718920000000     0.699780000000     0.089690000000     0.0397494  
C108     C      0.785830000000     0.768550000000     0.090810000000     0.157428   
C109     C      0.591070000000     0.946880000000     0.191660000000     0.0336741  
C110     C      0.524440000000     0.878850000000     0.195670000000     0.00243397 
C111     C      0.611760000000     0.925520000000     0.177750000000     0.0391177  
C112     C      0.544810000000     0.857060000000     0.181560000000     0.157109   
C113     C      0.002930000000     0.483200000000     0.329600000000     0.0505624  
C114     C      0.995620000000     0.547020000000     0.328110000000     0.00650164 
C115     C      0.995630000000     0.479740000000     0.362560000000     0.0253009  
C116     C      0.993430000000     0.546750000000     0.361740000000     0.160032   
C117     C      0.959660000000     0.457470000000     0.111380000000     0.0359446  
C118     C      0.037400000000     0.488190000000     0.113030000000     0.00641433 
C119     C      0.961070000000     0.457590000000     0.077970000000     0.043823   
C120     C      0.039330000000     0.490980000000     0.079500000000     0.163256   
C121     C      0.952830000000     0.600910000000     0.005800000000     0.0374858  
C122     C      0.885620000000     0.533290000000     0.002700000000     0.00331807 
C123     C      0.930380000000     0.621170000000     0.018590000000     0.0410485  
C124     C      0.862730000000     0.553250000000     0.015670000000     0.156546   
C125     C      0.370750000000     0.161110000000     0.411310000000     0.0342852  
C126     C      0.293150000000     0.114190000000     0.409680000000     0.00117332 
C127     C      0.369930000000     0.157260000000     0.444720000000     0.041244   
C128     C      0.291830000000     0.112160000000     0.443310000000     0.158424   
C129     C      0.372830000000     0.205970000000     0.162120000000     0.0349617  
C130     C      0.296050000000     0.180020000000     0.158860000000     0.00327014 
C131     C      0.370750000000     0.208330000000     0.195510000000     0.0454327  
C132     C      0.293300000000     0.179920000000     0.192440000000     0.162825   
C133     C      0.428240000000     0.117040000000     0.269460000000     0.0348554  
C134     C      0.357180000000     0.054730000000     0.262930000000     0.00415764 
C135     C      0.447250000000     0.093570000000     0.256630000000     0.0427262  
C136     C      0.376030000000     0.030780000000     0.249850000000     0.164262   
C137     C      0.127370000000     0.437100000000     0.432750000000     0.034284   
C138     C      0.061960000000     0.386700000000     0.405120000000    -0.000331521
C139     C      0.105150000000     0.457010000000     0.446430000000     0.045593   
C140     C      0.041250000000     0.409900000000     0.416110000000     0.16755    
C141     C      0.231050000000     0.216500000000     0.335780000000     0.0380156  
C142     C      0.300950000000     0.281190000000     0.338790000000     0.00473258 
C143     C      0.211150000000     0.239250000000     0.348380000000     0.0425021  
C144     C      0.281090000000     0.304630000000     0.351230000000     0.158148   
C145     C      0.497190000000     0.453290000000     0.361010000000     0.0347201  
C146     C      0.447270000000     0.480400000000     0.362990000000     0.00582218 
C147     C      0.494420000000     0.451780000000     0.327560000000     0.0432722  
C148     C      0.446570000000     0.481600000000     0.329340000000     0.162904   
C149     C      0.542490000000     0.499210000000     0.110640000000     0.0340422  
C150     C      0.511890000000     0.546050000000     0.113480000000    -0.000515068
C151     C      0.543230000000     0.502110000000     0.077190000000     0.0398225  
C152     C      0.509930000000     0.546790000000     0.079860000000     0.157013   
C153     C      0.871740000000     0.174970000000     0.446860000000     0.0335088  
C154     C      0.842600000000     0.223150000000     0.448050000000     0.00229849 
C155     C      0.870660000000     0.174940000000     0.413400000000     0.0411432  
C156     C      0.839150000000     0.221310000000     0.414500000000     0.158589   
C157     C      0.814550000000     0.124260000000     0.163390000000     0.0316896  
C158     C      0.785110000000     0.172120000000     0.164910000000     0.00143415 
C159     C      0.813730000000     0.122360000000     0.196880000000     0.0392512  
C160     C      0.781780000000     0.168370000000     0.198430000000     0.153502   
C161     C      0.160340000000     0.380040000000     0.241510000000     0.0339239  
C162     C      0.124350000000     0.302140000000     0.242520000000     0.0020448  
C163     C      0.162830000000     0.380890000000     0.275030000000     0.0413455  
C164     C      0.124930000000     0.302530000000     0.275990000000     0.157558   
C165     C      0.217840000000     0.376440000000     0.992090000000     0.0331324  
C166     C      0.170790000000     0.299010000000     0.992090000000     0.00160679 
C167     C      0.216130000000     0.376570000000     0.025570000000     0.0414874  
C168     C      0.170680000000     0.298540000000     0.025610000000     0.15745    
C169     C      0.978310000000     0.219290000000     0.087970000000     0.0343281  
C170     C      0.976340000000     0.285690000000     0.090200000000     0.00204522 
C171     C      0.021450000000     0.241140000000     0.099770000000     0.0408647  
C172     C      0.020130000000     0.308200000000     0.101870000000     0.15682    
C173     C      0.315660000000     0.437800000000     0.167640000000     0.0340843  
C174     C      0.308760000000     0.367320000000     0.171910000000     0.00211349 
C175     C      0.357410000000     0.456690000000     0.181740000000     0.0424677  
C176     C      0.351050000000     0.386120000000     0.185900000000     0.159548   
C177     C      0.538570000000     0.996500000000     0.365920000000     0.0299474  
C178     C      0.476380000000     0.014720000000     0.366240000000    -0.0481026  
C179     C      0.535060000000     0.990560000000     0.334130000000     0.0450216  
C180     C      0.464080000000     0.992030000000     0.334210000000     0.177086   
C181     C      0.489360000000     0.028580000000     0.116670000000     0.0343123  
C182     C      0.445470000000     0.950530000000     0.116740000000     0.00119793 
C183     C      0.488970000000     0.028450000000     0.083450000000     0.0415674  
C184     C      0.447310000000     0.950020000000     0.083330000000     0.159492   
C185     C      0.686580000000     0.068180000000     0.019060000000     0.0334836  
C186     C      0.684400000000     0.134410000000     0.022210000000     0.00132194 
C187     C      0.643730000000     0.046760000000     0.006400000000     0.0390964  
C188     C      0.641460000000     0.113310000000     0.009270000000     0.156522   
C189     C      0.184680000000     0.875240000000     0.278480000000     0.0367821  
C190     C      0.213810000000     0.827060000000     0.277690000000     0.00532228 
C191     C      0.183890000000     0.875220000000     0.245020000000     0.0467228  
C192     C      0.215490000000     0.828880000000     0.244060000000     0.162352   
C193     C      0.128340000000     0.829140000000     0.995750000000     0.0338525  
C194     C      0.152120000000     0.776640000000     0.993660000000    -4.74652e-05
C195     C      0.127700000000     0.827010000000     0.029250000000     0.0427881  
C196     C      0.154230000000     0.776480000000     0.027210000000     0.158945   
C197     C      0.303130000000     0.865760000000     0.438520000000     0.0357817  
C198     C      0.322720000000     0.929110000000     0.406640000000    -0.00225614 
C199     C      0.344480000000     0.887670000000     0.453520000000     0.0494294  
C200     C      0.365700000000     0.949120000000     0.419350000000     0.186565   
C201     C      0.787540000000     0.622900000000     0.414150000000     0.0347909  
C202     C      0.817390000000     0.700180000000     0.411650000000     0.000950709
C203     C      0.784300000000     0.624340000000     0.447470000000     0.0408746  
C204     C      0.816830000000     0.702170000000     0.445250000000     0.158925   
C205     C      0.876360000000     0.695760000000     0.162000000000     0.0377175  
C206     C      0.829790000000     0.618330000000     0.163160000000     0.00436133 
C207     C      0.877080000000     0.696660000000     0.195530000000     0.0438553  
C208     C      0.832700000000     0.618620000000     0.196730000000     0.15584    
C209     C      0.645050000000     0.601710000000     0.256690000000     0.0334525  
C210     C      0.642840000000     0.533200000000     0.257870000000     0.00100289 
C211     C      0.687790000000     0.622160000000     0.269730000000     0.0387019  
C212     C      0.685020000000     0.553050000000     0.271770000000     0.158202   
C213     C      0.022980000000     0.721510000000     0.349870000000     0.0360089  
C214     C      0.022940000000     0.788780000000     0.353640000000     0.00197279 
C215     C      0.979650000000     0.700920000000     0.337900000000     0.0423997  
C216     C      0.979680000000     0.768600000000     0.341440000000     0.157075   
C217     C      0.851420000000     0.661140000000     0.745600000000     0.444884   
C218     C      0.812640000000     0.660130000000     0.864180000000     0.434186   
C219     C      0.751200000000     0.620210000000     0.788520000000     0.44578    
C220     C      0.914840000000     0.702240000000     0.821960000000     0.444938   
C221     C      0.147620000000     0.810750000000     0.945540000000     0.433838   
C222     C      0.190540000000     0.843100000000     0.827140000000     0.436339   
C223     C      0.249970000000     0.866990000000     0.903910000000     0.437533   
C224     C      0.087500000000     0.786260000000     0.868830000000     0.434495   
C225     C      0.510190000000     0.006610000000     0.915880000000     0.447579   
C226     C      0.476270000000     0.990830000000     0.534710000000     0.45722    
C227     C      0.414310000000     0.952680000000     0.959890000000     0.458217   
C228     C      0.577520000000     0.045160000000     0.490700000000     0.446397   
C229     C      0.148490000000     0.339670000000     0.692970000000     0.437421   
C230     C      0.186670000000     0.339900000000     0.574730000000     0.447861   
C231     C      0.248910000000     0.374550000000     0.650910000000     0.436452   
C232     C      0.086140000000     0.305170000000     0.617380000000     0.446132   
C233     C      0.851120000000     0.192520000000     0.496730000000     0.434934   
C234     C      0.809830000000     0.158340000000     0.615280000000     0.433152   
C235     C      0.749430000000     0.133540000000     0.538770000000     0.435055   
C236     C      0.912420000000     0.219010000000     0.572830000000     0.434858   
C237     C      0.520300000000     0.513440000000     0.661200000000     0.43265    
C238     C      0.477570000000     0.475620000000     0.779330000000     0.448842   
C239     C      0.418150000000     0.452500000000     0.702800000000     0.449508   
C240     C      0.580570000000     0.536480000000     0.738240000000     0.434832   
C241     C      0.152270000000     0.344240000000     0.824820000000     0.447436   
C242     C      0.186990000000     0.338540000000     0.943130000000     0.436457   
C243     C      0.213430000000     0.304230000000     0.867120000000     0.445416   
C244     C      0.126830000000     0.380490000000     0.901310000000     0.434854   
C245     C      0.332370000000     0.148580000000     0.861630000000     0.433843   
C246     C      0.328780000000     0.186700000000     0.743340000000     0.448698   
C247     C      0.295200000000     0.213780000000     0.819930000000     0.43711    
C248     C      0.364770000000     0.121410000000     0.784730000000     0.43526    
C249     C      0.001150000000     0.482640000000     0.529720000000     0.451717   
C250     C      0.990490000000     0.510740000000     0.911040000000     0.457323   
C251     C      0.952990000000     0.536630000000     0.486830000000     0.438338   
C252     C      0.039470000000     0.460740000000     0.952980000000     0.450821   
C253     C      0.647050000000     0.840240000000     0.580020000000     0.433935   
C254     C      0.659990000000     0.807110000000     0.697880000000     0.433882   
C255     C      0.695360000000     0.784360000000     0.620270000000     0.433908   
C256     C      0.611080000000     0.861260000000     0.658640000000     0.444247   
C257     C      0.843440000000     0.656930000000     0.613670000000     0.435183   
C258     C      0.807270000000     0.665010000000     0.495650000000     0.447268   
C259     C      0.785010000000     0.701950000000     0.572620000000     0.445344   
C260     C      0.864840000000     0.619510000000     0.536190000000     0.444648   
C261     C      0.495380000000     0.982980000000     0.784950000000     0.456546   
C262     C      0.472360000000     0.989460000000     0.665570000000     0.44381    
C263     C      0.442860000000     0.027690000000     0.737650000000     0.450825   
C264     C      0.526060000000     0.945190000000     0.711490000000     0.435335   
C265     C      0.329910000000     0.140910000000     0.493340000000     0.446287   
C266     C      0.336180000000     0.183930000000     0.611560000000     0.434519   
C267     C      0.372940000000     0.243720000000     0.534930000000     0.434626   
C268     C      0.294540000000     0.081760000000     0.570680000000     0.446733   
C269     C      0.517860000000     0.518180000000     0.529320000000     0.446311   
C270     C      0.481590000000     0.475460000000     0.911030000000     0.434674   
C271     C      0.460010000000     0.415640000000     0.487900000000     0.444959   
C272     C      0.538920000000     0.577870000000     0.952700000000     0.436704   
C273     C      0.191500000000     0.847620000000     0.695280000000     0.448644   
C274     C      0.151300000000     0.809020000000     0.577140000000     0.448875   
C275     C      0.128860000000     0.747790000000     0.652520000000     0.449751   
C276     C      0.213750000000     0.910850000000     0.619500000000     0.435885   
C277     C      0.005030000000     0.515870000000     0.780130000000     0.438707   
C278     C      0.997330000000     0.478100000000     0.661390000000     0.438392   
C279     C      0.958440000000     0.415860000000     0.737500000000     0.434756   
C280     C      0.042920000000     0.578550000000     0.704130000000     0.435088   
C281     C      0.803540000000     0.147090000000     0.747190000000     0.443521   
C282     C      0.842820000000     0.187350000000     0.865290000000     0.447957   
C283     C      0.866110000000     0.246660000000     0.789230000000     0.448673   
C284     C      0.778400000000     0.084110000000     0.823960000000     0.432042   
C285     C      0.651380000000     0.847630000000     0.948120000000     0.444454   
C286     C      0.657160000000     0.813020000000     0.829530000000     0.445393   
C287     C      0.617040000000     0.749070000000     0.904540000000     0.445743   
C288     C      0.691510000000     0.912890000000     0.872890000000     0.443692   
C289     C      0.777840000000     0.018570000000     0.840510000000     0.0333338  
C290     C      0.712060000000     0.021920000000     0.843810000000     1.08157e-05
C291     C      0.756010000000     0.976230000000     0.853780000000     0.0401363  
C292     C      0.689600000000     0.978990000000     0.856830000000     0.157348   
C293     C      0.955720000000     0.349220000000     0.754700000000     0.0349258  
C294     C      0.892140000000     0.356400000000     0.758770000000     0.00303203 
C295     C      0.932210000000     0.307000000000     0.768330000000     0.0417791  
C296     C      0.868640000000     0.314710000000     0.773120000000     0.162181   
C297     C      0.109370000000     0.643330000000     0.687590000000     0.0362145  
C298     C      0.040430000000     0.640160000000     0.682390000000     0.00105768 
C299     C      0.130310000000     0.685280000000     0.673420000000     0.0446428  
C300     C      0.061010000000     0.682010000000     0.668140000000     0.159653   
C301     C      0.603130000000     0.644390000000     0.935370000000     0.0354378  
C302     C      0.532780000000     0.638530000000     0.933470000000     0.00463935 
C303     C      0.622210000000     0.687350000000     0.922970000000     0.0397433  
C304     C      0.551250000000     0.680840000000     0.920170000000     0.159481   
C305     C      0.277620000000     0.974600000000     0.598320000000     0.035101   
C306     C      0.211110000000     0.975560000000     0.606140000000     0.00176727 
C307     C      0.297320000000     0.017550000000     0.585810000000     0.0412978  
C308     C      0.230320000000     0.018290000000     0.593510000000     0.158414   
C309     C      0.371690000000     0.307420000000     0.515420000000     0.0337693  
C310     C      0.439710000000     0.308650000000     0.520330000000     0.000311648
C311     C      0.394110000000     0.350590000000     0.503400000000     0.0399716  
C312     C      0.462470000000     0.351760000000     0.508180000000     0.155843   
C313     C      0.622080000000     0.777820000000     0.747100000000     0.0329207  
C314     C      0.699430000000     0.826420000000     0.747210000000     0.000689794
C315     C      0.621440000000     0.781220000000     0.780480000000     0.0420011  
C316     C      0.699450000000     0.828110000000     0.780790000000     0.156758   
C317     C      0.684770000000     0.874490000000     0.531680000000     0.0327184  
C318     C      0.607880000000     0.823920000000     0.530430000000     0.00322353 
C319     C      0.685780000000     0.875220000000     0.498190000000     0.0412376  
C320     C      0.608130000000     0.826600000000     0.496820000000     0.155507   
C321     C      0.695960000000     0.719920000000     0.601900000000     0.0335629  
C322     C      0.762520000000     0.788300000000     0.603290000000     0.00104426 
C323     C      0.718920000000     0.699780000000     0.589690000000     0.0397145  
C324     C      0.785830000000     0.768550000000     0.590810000000     0.157417   
C325     C      0.591070000000     0.946880000000     0.691660000000     0.0336744  
C326     C      0.524440000000     0.878850000000     0.695670000000     0.00243975 
C327     C      0.611760000000     0.925520000000     0.677750000000     0.0391171  
C328     C      0.544810000000     0.857060000000     0.681560000000     0.157097   
C329     C      0.002930000000     0.483200000000     0.829600000000     0.0505711  
C330     C      0.995620000000     0.547030000000     0.828110000000     0.00640523 
C331     C      0.995630000000     0.479740000000     0.862560000000     0.0252905  
C332     C      0.993430000000     0.546750000000     0.861740000000     0.160062   
C333     C      0.959660000000     0.457470000000     0.611380000000     0.0359493  
C334     C      0.037400000000     0.488190000000     0.613030000000     0.00640259 
C335     C      0.961070000000     0.457590000000     0.577970000000     0.043801   
C336     C      0.039320000000     0.490980000000     0.579500000000     0.163257   
C337     C      0.952830000000     0.600910000000     0.505790000000     0.0374005  
C338     C      0.885620000000     0.533290000000     0.502700000000     0.00309108 
C339     C      0.930380000000     0.621170000000     0.518590000000     0.0410732  
C340     C      0.862730000000     0.553250000000     0.515670000000     0.156604   
C341     C      0.370750000000     0.161110000000     0.911310000000     0.0342987  
C342     C      0.293150000000     0.114190000000     0.909680000000     0.0011801  
C343     C      0.369930000000     0.157260000000     0.944720000000     0.0412323  
C344     C      0.291830000000     0.112160000000     0.943310000000     0.158409   
C345     C      0.372830000000     0.205970000000     0.662120000000     0.0349563  
C346     C      0.296050000000     0.180020000000     0.658860000000     0.00328729 
C347     C      0.370750000000     0.208330000000     0.695510000000     0.0454293  
C348     C      0.293300000000     0.179920000000     0.692440000000     0.162817   
C349     C      0.428240000000     0.117040000000     0.769460000000     0.0348546  
C350     C      0.357180000000     0.054730000000     0.762930000000     0.00415248 
C351     C      0.447250000000     0.093570000000     0.756630000000     0.042727   
C352     C      0.376030000000     0.030780000000     0.749850000000     0.164265   
C353     C      0.127370000000     0.437090000000     0.932750000000     0.034386   
C354     C      0.061960000000     0.386700000000     0.905120000000    -0.000362785
C355     C      0.105150000000     0.457010000000     0.946430000000     0.0455362  
C356     C      0.041250000000     0.409900000000     0.916110000000     0.167559   
C357     C      0.231050000000     0.216500000000     0.835780000000     0.0380135  
C358     C      0.300950000000     0.281190000000     0.838790000000     0.00473073 
C359     C      0.211150000000     0.239250000000     0.848380000000     0.0425012  
C360     C      0.281090000000     0.304630000000     0.851230000000     0.158147   
C361     C      0.497190000000     0.453290000000     0.861010000000     0.0347307  
C362     C      0.447270000000     0.480400000000     0.862980000000     0.00572384 
C363     C      0.494420000000     0.451780000000     0.827560000000     0.0432402  
C364     C      0.446570000000     0.481600000000     0.829350000000     0.162905   
C365     C      0.542490000000     0.499210000000     0.610640000000     0.0340458  
C366     C      0.511890000000     0.546050000000     0.613480000000    -0.000518114
C367     C      0.543230000000     0.502110000000     0.577190000000     0.0398138  
C368     C      0.509930000000     0.546790000000     0.579860000000     0.157023   
C369     C      0.871740000000     0.174970000000     0.946860000000     0.0334857  
C370     C      0.842610000000     0.223150000000     0.948050000000     0.00234666 
C371     C      0.870660000000     0.174940000000     0.913390000000     0.0411843  
C372     C      0.839150000000     0.221310000000     0.914500000000     0.15857    
C373     C      0.814550000000     0.124260000000     0.663390000000     0.031696   
C374     C      0.785110000000     0.172120000000     0.664910000000     0.00140201 
C375     C      0.813730000000     0.122360000000     0.696880000000     0.0392375  
C376     C      0.781780000000     0.168370000000     0.698430000000     0.153515   
C377     C      0.160340000000     0.380040000000     0.741510000000     0.0339372  
C378     C      0.124350000000     0.302140000000     0.742520000000     0.00201614 
C379     C      0.162830000000     0.380890000000     0.775030000000     0.0412941  
C380     C      0.124930000000     0.302530000000     0.775990000000     0.157615   
C381     C      0.217840000000     0.376450000000     0.492090000000     0.0332937  
C382     C      0.170790000000     0.299010000000     0.492090000000     0.00167883 
C383     C      0.216130000000     0.376580000000     0.525570000000     0.0413021  
C384     C      0.170680000000     0.298540000000     0.525610000000     0.157364   
C385     C      0.978310000000     0.219290000000     0.587970000000     0.0343684  
C386     C      0.976340000000     0.285690000000     0.590200000000     0.00199971 
C387     C      0.021450000000     0.241140000000     0.599770000000     0.0408439  
C388     C      0.020130000000     0.308200000000     0.601870000000     0.156862   
C389     C      0.315660000000     0.437800000000     0.667640000000     0.0341093  
C390     C      0.308760000000     0.367320000000     0.671910000000     0.00211383 
C391     C      0.357410000000     0.456690000000     0.681740000000     0.0424527  
C392     C      0.351050000000     0.386120000000     0.685900000000     0.159545   
C393     C      0.538570000000     0.996500000000     0.865920000000     0.0299482  
C394     C      0.476380000000     0.014720000000     0.866240000000    -0.0481069  
C395     C      0.535060000000     0.990560000000     0.834130000000     0.0450118  
C396     C      0.464080000000     0.992030000000     0.834210000000     0.177087   
C397     C      0.489360000000     0.028580000000     0.616670000000     0.034324   
C398     C      0.445470000000     0.950530000000     0.616750000000     0.00125994 
C399     C      0.488970000000     0.028450000000     0.583450000000     0.0415575  
C400     C      0.447310000000     0.950020000000     0.583330000000     0.159464   
C401     C      0.686580000000     0.068180000000     0.519060000000     0.0334759  
C402     C      0.684400000000     0.134410000000     0.522210000000     0.00131253 
C403     C      0.643730000000     0.046760000000     0.506390000000     0.0390957  
C404     C      0.641460000000     0.113310000000     0.509270000000     0.156516   
C405     C      0.184680000000     0.875240000000     0.778480000000     0.0367615  
C406     C      0.213810000000     0.827060000000     0.777690000000     0.00532108 
C407     C      0.183890000000     0.875220000000     0.745020000000     0.0467397  
C408     C      0.215490000000     0.828890000000     0.744060000000     0.162374   
C409     C      0.128340000000     0.829140000000     0.495750000000     0.0339651  
C410     C      0.152120000000     0.776640000000     0.493660000000     6.93042e-05
C411     C      0.127700000000     0.827010000000     0.529250000000     0.0426749  
C412     C      0.154230000000     0.776480000000     0.527210000000     0.15881    
C413     C      0.303130000000     0.865760000000     0.938520000000     0.0357773  
C414     C      0.322720000000     0.929110000000     0.906630000000    -0.00228519 
C415     C      0.344480000000     0.887670000000     0.953520000000     0.0494404  
C416     C      0.365700000000     0.949120000000     0.919350000000     0.186568   
C417     C      0.787540000000     0.622900000000     0.914150000000     0.0347764  
C418     C      0.817380000000     0.700170000000     0.911650000000     0.00105023 
C419     C      0.784300000000     0.624340000000     0.947470000000     0.0408969  
C420     C      0.816830000000     0.702170000000     0.945250000000     0.158795   
C421     C      0.876360000000     0.695760000000     0.662000000000     0.0377175  
C422     C      0.829790000000     0.618330000000     0.663160000000     0.00436345 
C423     C      0.877080000000     0.696660000000     0.695530000000     0.0438593  
C424     C      0.832700000000     0.618620000000     0.696730000000     0.155832   
C425     C      0.645050000000     0.601710000000     0.756690000000     0.0334558  
C426     C      0.642840000000     0.533210000000     0.757870000000     0.00111088 
C427     C      0.687790000000     0.622160000000     0.769730000000     0.0386965  
C428     C      0.685020000000     0.553050000000     0.771780000000     0.158169   
C429     C      0.022980000000     0.721510000000     0.849870000000     0.0359962  
C430     C      0.022940000000     0.788780000000     0.853640000000     0.00198881 
C431     C      0.979650000000     0.700920000000     0.837900000000     0.0424061  
C432     C      0.979680000000     0.768600000000     0.841430000000     0.157081   
H1       H      0.775280000000     0.959820000000     0.356830000000     0.0539211  
H2       H      0.812700000000     0.032660000000     0.334610000000     0.0481983  
H3       H      0.693770000000     0.039330000000     0.340660000000     0.0695935  
H4       H      0.949810000000     0.288890000000     0.271300000000     0.047722   
H5       H      0.990110000000     0.361700000000     0.248080000000     0.0477497  
H6       H      0.875180000000     0.375140000000     0.255750000000     0.0760557  
H7       H      0.166100000000     0.701840000000     0.170830000000     0.0586731  
H8       H      0.129690000000     0.629210000000     0.194640000000     0.0503917  
H9       H      0.004600000000     0.623060000000     0.184950000000     0.073327   
H10      H      0.657890000000     0.705200000000     0.419510000000     0.0484818  
H11      H      0.624750000000     0.631170000000     0.440800000000     0.0473016  
H12      H      0.497100000000     0.620110000000     0.937020000000     0.0765877  
H13      H      0.331590000000     0.032530000000     0.078020000000     0.0468886  
H14      H      0.297420000000     0.958540000000     0.099660000000     0.0508349  
H15      H      0.176930000000     0.960310000000     0.114220000000     0.0738591  
H16      H      0.374210000000     0.365440000000     0.997000000000     0.0477719  
H17      H      0.335890000000     0.291200000000     0.017770000000     0.0494188  
H18      H      0.459050000000     0.293280000000     0.026980000000     0.0717376  
H19      H      0.589680000000     0.763140000000     0.292640000000     0.0478881  
H20      H      0.590700000000     0.758090000000     0.234800000000     0.0516294  
H21      H      0.730730000000     0.845580000000     0.234660000000     0.0690712  
H22      H      0.717550000000     0.895460000000     0.986480000000     0.0429672  
H23      H      0.715920000000     0.893740000000     0.044350000000     0.0452584  
H24      H      0.576670000000     0.802630000000     0.042510000000     0.0742932  
H25      H      0.699720000000     0.664580000000     0.084780000000     0.0470012  
H26      H      0.660520000000     0.699390000000     0.105770000000     0.0488335  
H27      H      0.780980000000     0.823490000000     0.108400000000     0.0713084  
H28      H      0.646410000000     0.945890000000     0.171160000000     0.0443744  
H29      H      0.610710000000     0.982420000000     0.194980000000     0.047211   
H30      H      0.489790000000     0.859280000000     0.202510000000     0.0745435  
H31      H      0.995970000000     0.451810000000     0.374650000000     0.108444   
H32      H      0.006900000000     0.457740000000     0.317620000000     0.0461032  
H33      H      0.994300000000     0.573050000000     0.314740000000     0.0612904  
H34      H      0.929950000000     0.445390000000     0.065140000000     0.0443757  
H35      H      0.927650000000     0.444610000000     0.123010000000     0.0479664  
H36      H      0.068250000000     0.500160000000     0.126160000000     0.0735894  
H37      H      0.950040000000     0.656060000000     0.024430000000     0.0507673  
H38      H      0.988420000000     0.621140000000     0.502460000000     0.0530812  
H39      H      0.866790000000     0.498420000000     0.996590000000     0.0731437  
H40      H      0.401160000000     0.175420000000     0.457510000000     0.044511   
H41      H      0.402600000000     0.181220000000     0.399700000000     0.0476424  
H42      H      0.262140000000     0.096200000000     0.396610000000     0.0697691  
H43      H      0.401220000000     0.219300000000     0.208960000000     0.0435564  
H44      H      0.404800000000     0.216010000000     0.151200000000     0.0463869  
H45      H      0.265820000000     0.169140000000     0.145150000000     0.0771435  
H46      H      0.483190000000     0.110880000000     0.255100000000     0.0480036  
H47      H      0.450350000000     0.151040000000     0.276650000000     0.0473759  
H48      H      0.321300000000     0.038540000000     0.264590000000     0.0717409  
H49      H      0.122870000000     0.483830000000     0.463380000000     0.0505725  
H50      H      0.161760000000     0.449440000000     0.439380000000     0.0457508  
H51      H      0.045350000000     0.361120000000     0.387120000000     0.0672412  
H52      H      0.175380000000     0.220660000000     0.351310000000     0.055105   
H53      H      0.209680000000     0.181750000000     0.330170000000     0.0531794  
H54      H      0.336690000000     0.298650000000     0.335650000000     0.072347   
H55      H      0.514090000000     0.440610000000     0.314600000000     0.0439923  
H56      H      0.518110000000     0.442450000000     0.372510000000     0.0483291  
H57      H      0.427760000000     0.491480000000     0.376230000000     0.0741454  
H58      H      0.555580000000     0.483740000000     0.063890000000     0.0503285  
H59      H      0.554990000000     0.479480000000     0.121780000000     0.0482452  
H60      H      0.499600000000     0.564240000000     0.127060000000     0.0686794  
H61      H      0.881750000000     0.155000000000     0.400790000000     0.0425439  
H62      H      0.884260000000     0.155680000000     0.458680000000     0.0451813  
H63      H      0.831620000000     0.242950000000     0.460970000000     0.0710774  
H64      H      0.826100000000     0.102800000000     0.208500000000     0.0417055  
H65      H      0.828000000000     0.106490000000     0.150620000000     0.0437691  
H66      H      0.774240000000     0.192720000000     0.152980000000     0.0696043  
H67      H      0.178720000000     0.412850000000     0.286900000000     0.0447232  
H68      H      0.175260000000     0.411340000000     0.228790000000     0.0462709  
H69      H      0.109590000000     0.270410000000     0.230350000000     0.0717273  
H70      H      0.234190000000     0.408140000000     0.037840000000     0.0444146  
H71      H      0.236360000000     0.407940000000     0.979810000000     0.0462404  
H72      H      0.151780000000     0.267820000000     0.979480000000     0.0706039  
H73      H      0.037430000000     0.221450000000     0.102740000000     0.0542259  
H74      H      0.963420000000     0.184210000000     0.082940000000     0.0479268  
H75      H      0.959200000000     0.304230000000     0.086990000000     0.0707125  
H76      H      0.375100000000     0.492360000000     0.184660000000     0.0493721  
H77      H      0.303190000000     0.459660000000     0.161020000000     0.0488422  
H78      H      0.290010000000     0.331680000000     0.168870000000     0.074485   
H79      H      0.559920000000     0.986120000000     0.321470000000     0.0475512  
H80      H      0.566270000000     0.996850000000     0.378280000000     0.059257   
H81      H      0.453000000000     0.015400000000     0.379220000000     0.186255   
H82      H      0.506910000000     0.060120000000     0.071260000000     0.0470437  
H83      H      0.506760000000     0.060180000000     0.128970000000     0.045894   
H84      H      0.427640000000     0.919170000000     0.129310000000     0.0733073  
H85      H      0.629530000000     0.011960000000     0.000640000000     0.0491137  
H86      H      0.703080000000     0.049050000000     0.022300000000     0.0451183  
H87      H      0.699540000000     0.169290000000     0.028060000000     0.0727588  
H88      H      0.171120000000     0.894250000000     0.233110000000     0.0455837  
H89      H      0.171920000000     0.893820000000     0.290970000000     0.0483093  
H90      H      0.225020000000     0.806950000000     0.289940000000     0.0721722  
H91      H      0.118250000000     0.847920000000     0.042340000000     0.0459475  
H92      H      0.118600000000     0.850910000000     0.984280000000     0.0496163  
H93      H      0.161570000000     0.755860000000     0.980400000000     0.0698762  
H94      H      0.351830000000     0.870950000000     0.972470000000     0.0507645  
H95      H      0.279490000000     0.832400000000     0.446250000000     0.0481325  
H96      H      0.315910000000     0.944690000000     0.386580000000     0.0749628  
H97      H      0.771480000000     0.593470000000     0.460600000000     0.0504933  
H98      H      0.776170000000     0.590980000000     0.402890000000     0.0510601  
H99      H      0.830230000000     0.730790000000     0.398210000000     0.0752272  
H100     H      0.895600000000     0.728540000000     0.207330000000     0.0475442  
H101     H      0.893820000000     0.727040000000     0.149310000000     0.0534052  
H102     H      0.810080000000     0.586870000000     0.151040000000     0.0716707  
H103     H      0.704040000000     0.657590000000     0.273700000000     0.0467509  
H104     H      0.630400000000     0.622090000000     0.251360000000     0.0459598  
H105     H      0.625920000000     0.497750000000     0.253840000000     0.0723608  
H106     H      0.964260000000     0.666030000000     0.332040000000     0.0542279  
H107     H      0.038740000000     0.701620000000     0.352700000000     0.0561619  
H108     H      0.038880000000     0.823630000000     0.359790000000     0.0725934  
H109     H      0.775280000000     0.959820000000     0.856830000000     0.0539146  
H110     H      0.812700000000     0.032660000000     0.834610000000     0.0481895  
H111     H      0.693770000000     0.039330000000     0.840660000000     0.0695851  
H112     H      0.949810000000     0.288890000000     0.771300000000     0.0477209  
H113     H      0.990110000000     0.361700000000     0.748080000000     0.0477511  
H114     H      0.875180000000     0.375150000000     0.755750000000     0.076045   
H115     H      0.166100000000     0.701840000000     0.670830000000     0.0586626  
H116     H      0.129680000000     0.629210000000     0.694640000000     0.0504003  
H117     H      0.004610000000     0.623060000000     0.684950000000     0.0733451  
H118     H      0.657890000000     0.705210000000     0.919510000000     0.0484879  
H119     H      0.624750000000     0.631170000000     0.940800000000     0.0472958  
H120     H      0.497100000000     0.620110000000     0.437020000000     0.0766002  
H121     H      0.331590000000     0.032530000000     0.578020000000     0.0468685  
H122     H      0.297420000000     0.958540000000     0.599660000000     0.0508149  
H123     H      0.176930000000     0.960310000000     0.614220000000     0.0738561  
H124     H      0.374210000000     0.365440000000     0.497000000000     0.0478809  
H125     H      0.335890000000     0.291200000000     0.517770000000     0.0493835  
H126     H      0.459050000000     0.293280000000     0.526980000000     0.0717246  
H127     H      0.589680000000     0.763140000000     0.792640000000     0.0478872  
H128     H      0.590700000000     0.758090000000     0.734800000000     0.0516315  
H129     H      0.730730000000     0.845580000000     0.734660000000     0.0690711  
H130     H      0.717550000000     0.895460000000     0.486480000000     0.0429585  
H131     H      0.715920000000     0.893750000000     0.544350000000     0.0452721  
H132     H      0.576670000000     0.802630000000     0.542510000000     0.0743288  
H133     H      0.699720000000     0.664580000000     0.584780000000     0.0470039  
H134     H      0.660520000000     0.699390000000     0.605770000000     0.0488065  
H135     H      0.780980000000     0.823490000000     0.608400000000     0.0713041  
H136     H      0.646410000000     0.945890000000     0.671160000000     0.0443799  
H137     H      0.610710000000     0.982420000000     0.694980000000     0.0472124  
H138     H      0.489790000000     0.859280000000     0.702510000000     0.0745428  
H139     H      0.995970000000     0.451810000000     0.874650000000     0.108442   
H140     H      0.006900000000     0.457740000000     0.817620000000     0.0461018  
H141     H      0.994310000000     0.573050000000     0.814740000000     0.0613166  
H142     H      0.929960000000     0.445390000000     0.565130000000     0.044377   
H143     H      0.927650000000     0.444610000000     0.623010000000     0.0479603  
H144     H      0.068250000000     0.500170000000     0.626160000000     0.0735866  
H145     H      0.950040000000     0.656060000000     0.524430000000     0.0507506  
H146     H      0.988420000000     0.621140000000     0.002460000000     0.0530872  
H147     H      0.866790000000     0.498420000000     0.496600000000     0.0732539  
H148     H      0.401170000000     0.175420000000     0.957510000000     0.0444885  
H149     H      0.402610000000     0.181220000000     0.899710000000     0.0476174  
H150     H      0.262140000000     0.096200000000     0.896610000000     0.0697675  
H151     H      0.401220000000     0.219300000000     0.708950000000     0.043557   
H152     H      0.404790000000     0.216010000000     0.651200000000     0.0463851  
H153     H      0.265820000000     0.169140000000     0.645150000000     0.0771339  
H154     H      0.483190000000     0.110880000000     0.755100000000     0.048004   
H155     H      0.450350000000     0.151040000000     0.776650000000     0.0473854  
H156     H      0.321300000000     0.038540000000     0.764590000000     0.0717425  
H157     H      0.122870000000     0.483830000000     0.963380000000     0.050559   
H158     H      0.161760000000     0.449440000000     0.939390000000     0.0457023  
H159     H      0.045350000000     0.361120000000     0.887120000000     0.0672427  
H160     H      0.175380000000     0.220660000000     0.851310000000     0.0551026  
H161     H      0.209680000000     0.181750000000     0.830170000000     0.0531784  
H162     H      0.336690000000     0.298650000000     0.835650000000     0.0723473  
H163     H      0.514090000000     0.440620000000     0.814600000000     0.0440015  
H164     H      0.518110000000     0.442450000000     0.872520000000     0.0483285  
H165     H      0.427760000000     0.491480000000     0.876230000000     0.0741731  
H166     H      0.555570000000     0.483740000000     0.563890000000     0.0503149  
H167     H      0.554990000000     0.479480000000     0.621780000000     0.0482443  
H168     H      0.499600000000     0.564240000000     0.627060000000     0.0686811  
H169     H      0.881750000000     0.155000000000     0.900790000000     0.0425139  
H170     H      0.884260000000     0.155680000000     0.958680000000     0.0451628  
H171     H      0.831620000000     0.242950000000     0.960970000000     0.0710357  
H172     H      0.826090000000     0.102800000000     0.708500000000     0.0417086  
H173     H      0.828000000000     0.106490000000     0.650620000000     0.0437672  
H174     H      0.774250000000     0.192720000000     0.652980000000     0.0696163  
H175     H      0.178720000000     0.412850000000     0.786900000000     0.0447354  
H176     H      0.175260000000     0.411340000000     0.728790000000     0.046272   
H177     H      0.109590000000     0.270410000000     0.730350000000     0.0717372  
H178     H      0.234190000000     0.408140000000     0.537840000000     0.0444413  
H179     H      0.236360000000     0.407940000000     0.479810000000     0.0462261  
H180     H      0.151780000000     0.267820000000     0.479480000000     0.0706096  
H181     H      0.037430000000     0.221450000000     0.602740000000     0.054227   
H182     H      0.963430000000     0.184210000000     0.582940000000     0.0479018  
H183     H      0.959200000000     0.304230000000     0.586990000000     0.0707158  
H184     H      0.375090000000     0.492360000000     0.684660000000     0.0493755  
H185     H      0.303190000000     0.459670000000     0.661020000000     0.0488321  
H186     H      0.290010000000     0.331680000000     0.668870000000     0.0744846  
H187     H      0.559920000000     0.986120000000     0.821480000000     0.0475497  
H188     H      0.566270000000     0.996850000000     0.878280000000     0.0592531  
H189     H      0.453000000000     0.015400000000     0.879220000000     0.186258   
H190     H      0.506910000000     0.060120000000     0.571260000000     0.0470394  
H191     H      0.506760000000     0.060180000000     0.628970000000     0.0458936  
H192     H      0.427630000000     0.919170000000     0.629310000000     0.0732865  
H193     H      0.629530000000     0.011960000000     0.500640000000     0.0490721  
H194     H      0.703080000000     0.049050000000     0.522300000000     0.0451102  
H195     H      0.699540000000     0.169290000000     0.528060000000     0.0727526  
H196     H      0.171120000000     0.894250000000     0.733100000000     0.0455805  
H197     H      0.171920000000     0.893820000000     0.790970000000     0.0483058  
H198     H      0.225020000000     0.806950000000     0.789940000000     0.0721751  
H199     H      0.118250000000     0.847920000000     0.542340000000     0.0459624  
H200     H      0.118600000000     0.850910000000     0.484280000000     0.0496206  
H201     H      0.161570000000     0.755860000000     0.480400000000     0.0698728  
H202     H      0.351830000000     0.870950000000     0.472470000000     0.0507822  
H203     H      0.279490000000     0.832400000000     0.946250000000     0.0481203  
H204     H      0.315910000000     0.944690000000     0.886580000000     0.0749682  
H205     H      0.771480000000     0.593470000000     0.960600000000     0.0504636  
H206     H      0.776170000000     0.590980000000     0.902890000000     0.0510639  
H207     H      0.830220000000     0.730790000000     0.898210000000     0.0751918  
H208     H      0.895600000000     0.728540000000     0.707330000000     0.0475526  
H209     H      0.893820000000     0.727040000000     0.649310000000     0.0534083  
H210     H      0.810080000000     0.586870000000     0.651040000000     0.071668   
H211     H      0.704040000000     0.657590000000     0.773700000000     0.0467558  
H212     H      0.630400000000     0.622090000000     0.751360000000     0.0459572  
H213     H      0.625920000000     0.497750000000     0.753840000000     0.0723257  
H214     H      0.964260000000     0.666030000000     0.832040000000     0.0542291  
H215     H      0.038740000000     0.701620000000     0.852700000000     0.0561628  
H216     H      0.038880000000     0.823630000000     0.859780000000     0.0725863  
N1       N      0.756000000000     0.041560000000     0.335630000000    -0.170932   
N2       N      0.711780000000     0.955830000000     0.361660000000    -0.19078    
N3       N      0.935530000000     0.373740000000     0.249760000000    -0.170823   
N4       N      0.888570000000     0.289280000000     0.277420000000    -0.190046   
N5       N      0.064420000000     0.620800000000     0.192010000000    -0.170901   
N6       N      0.106510000000     0.705150000000     0.164110000000    -0.190803   
N7       N      0.558470000000     0.620240000000     0.440920000000    -0.170574   
N8       N      0.596630000000     0.705990000000     0.415420000000    -0.190843   
N9       N      0.234430000000     0.953590000000     0.108310000000    -0.170522   
N10      N      0.273790000000     0.039430000000     0.082950000000    -0.191693   
N11      N      0.394540000000     0.286480000000     0.023810000000    -0.171308   
N12      N      0.439410000000     0.372940000000     0.999470000000    -0.192596   
N13      N      0.660700000000     0.802490000000     0.230490000000    -0.171346   
N14      N      0.659810000000     0.806910000000     0.297290000000    -0.193465   
N15      N      0.646290000000     0.846950000000     0.047650000000    -0.17114    
N16      N      0.647830000000     0.850710000000     0.980690000000    -0.192311   
N17      N      0.717790000000     0.764150000000     0.108750000000    -0.171194   
N18      N      0.763830000000     0.723710000000     0.084020000000    -0.19123    
N19      N      0.547270000000     0.923640000000     0.200240000000    -0.171186   
N20      N      0.588890000000     0.880740000000     0.172200000000    -0.192082   
N21      N      0.002000000000     0.516170000000     0.312600000000    -0.174886   
N22      N      0.992770000000     0.512590000000     0.378550000000    -0.189389   
N23      N      0.997930000000     0.473680000000     0.128810000000    -0.170697   
N24      N      0.000940000000     0.476580000000     0.062140000000    -0.194531   
N25      N      0.930510000000     0.556930000000     0.998040000000    -0.170535   
N26      N      0.885420000000     0.597670000000     0.023880000000    -0.191382   
N27      N      0.332190000000     0.140700000000     0.393930000000    -0.170493   
N28      N      0.330340000000     0.135340000000     0.460790000000    -0.193269   
N29      N      0.335260000000     0.190700000000     0.143930000000    -0.169414   
N30      N      0.330720000000     0.192740000000     0.210730000000    -0.192579   
N31      N      0.383270000000     0.097610000000     0.272830000000    -0.170876   
N32      N      0.421640000000     0.050160000000     0.247380000000    -0.189076   
N33      N      0.105160000000     0.400950000000     0.413230000000    -0.171058   
N34      N      0.061630000000     0.442000000000     0.439090000000    -0.196515   
N35      N      0.275950000000     0.237290000000     0.331120000000    -0.170003   
N36      N      0.235630000000     0.283380000000     0.355970000000    -0.190257   
N37      N      0.474630000000     0.468820000000     0.378610000000    -0.169847   
N38      N      0.471580000000     0.468630000000     0.311750000000    -0.193295   
N39      N      0.525820000000     0.520310000000     0.128690000000    -0.171069   
N40      N      0.524530000000     0.523560000000     0.061810000000    -0.193235   
N41      N      0.856240000000     0.197810000000     0.464120000000    -0.171294   
N42      N      0.851640000000     0.195560000000     0.397370000000    -0.193526   
N43      N      0.802370000000     0.150940000000     0.147610000000    -0.171879   
N44      N      0.798160000000     0.144910000000     0.214490000000    -0.193061   
N45      N      0.143210000000     0.340710000000     0.225430000000    -0.171878   
N46      N      0.145870000000     0.342350000000     0.292270000000    -0.193801   
N47      N      0.193020000000     0.337940000000     0.975520000000    -0.171955   
N48      N      0.191860000000     0.337920000000     0.042310000000    -0.194163   
N49      N      0.955590000000     0.241400000000     0.083340000000    -0.171809   
N50      N      0.042890000000     0.285590000000     0.106660000000    -0.191052   
N51      N      0.291180000000     0.393130000000     0.162920000000    -0.171443   
N52      N      0.375670000000     0.431330000000     0.190650000000    -0.192027   
N53      N      0.507870000000     0.005000000000     0.383460000000    -0.154425   
N54      N      0.497060000000     0.986270000000     0.317240000000    -0.189992   
N55      N      0.468380000000     0.989600000000     0.133130000000    -0.174043   
N56      N      0.470090000000     0.989270000000     0.066960000000    -0.197859   
N57      N      0.706830000000     0.111940000000     0.027080000000    -0.171911   
N58      N      0.620670000000     0.068820000000     0.001600000000    -0.192051   
N59      N      0.197330000000     0.849220000000     0.294690000000    -0.170119   
N60      N      0.198380000000     0.851480000000     0.227780000000    -0.191907   
N61      N      0.141740000000     0.804860000000     0.978070000000    -0.170728   
N62      N      0.143340000000     0.802990000000     0.044860000000    -0.193902   
N63      N      0.291760000000     0.887460000000     0.416410000000    -0.169248   
N64      N      0.374320000000     0.930140000000     0.445030000000    -0.199966   
N65      N      0.805170000000     0.660960000000     0.396400000000    -0.17026    
N66      N      0.801560000000     0.664110000000     0.463090000000    -0.193544   
N67      N      0.850690000000     0.656870000000     0.146000000000    -0.170101   
N68      N      0.854710000000     0.658370000000     0.212960000000    -0.192063   
N69      N      0.622840000000     0.557320000000     0.250480000000    -0.171986   
N70      N      0.708220000000     0.598230000000     0.277180000000    -0.191485   
N71      N      0.044590000000     0.765450000000     0.357710000000    -0.170809   
N72      N      0.957790000000     0.724180000000     0.333380000000    -0.191595   
N73      N      0.756000000000     0.041560000000     0.835630000000    -0.170979   
N74      N      0.711780000000     0.955830000000     0.861660000000    -0.190859   
N75      N      0.935530000000     0.373740000000     0.749760000000    -0.170826   
N76      N      0.888570000000     0.289280000000     0.777420000000    -0.190045   
N77      N      0.064420000000     0.620800000000     0.692010000000    -0.170873   
N78      N      0.106510000000     0.705150000000     0.664110000000    -0.190822   
N79      N      0.558470000000     0.620240000000     0.940920000000    -0.170623   
N80      N      0.596630000000     0.705990000000     0.915420000000    -0.190842   
N81      N      0.234430000000     0.953590000000     0.608310000000    -0.170545   
N82      N      0.273790000000     0.039430000000     0.582950000000    -0.191716   
N83      N      0.394540000000     0.286480000000     0.523810000000    -0.17133    
N84      N      0.439410000000     0.372940000000     0.499470000000    -0.192477   
N85      N      0.660700000000     0.802490000000     0.730490000000    -0.171324   
N86      N      0.659810000000     0.806910000000     0.797290000000    -0.193464   
N87      N      0.646290000000     0.846950000000     0.547650000000    -0.171089   
N88      N      0.647830000000     0.850710000000     0.480690000000    -0.192341   
N89      N      0.717790000000     0.764150000000     0.608750000000    -0.171218   
N90      N      0.763830000000     0.723710000000     0.584020000000    -0.19122    
N91      N      0.547270000000     0.923640000000     0.700240000000    -0.171186   
N92      N      0.588890000000     0.880740000000     0.672200000000    -0.192036   
N93      N      0.002000000000     0.516170000000     0.812600000000    -0.174884   
N94      N      0.992770000000     0.512590000000     0.878550000000    -0.189415   
N95      N      0.997930000000     0.473680000000     0.628810000000    -0.170704   
N96      N      0.000940000000     0.476580000000     0.562140000000    -0.194556   
N97      N      0.930510000000     0.556930000000     0.498040000000    -0.170382   
N98      N      0.885420000000     0.597670000000     0.523880000000    -0.191411   
N99      N      0.332190000000     0.140700000000     0.893940000000    -0.170432   
N100     N      0.330340000000     0.135340000000     0.960790000000    -0.193244   
N101     N      0.335260000000     0.190700000000     0.643930000000    -0.169482   
N102     N      0.330720000000     0.192740000000     0.710730000000    -0.192547   
N103     N      0.383270000000     0.097610000000     0.772830000000    -0.170852   
N104     N      0.421640000000     0.050160000000     0.747380000000    -0.189076   
N105     N      0.105160000000     0.400950000000     0.913240000000    -0.171075   
N106     N      0.061630000000     0.442000000000     0.939090000000    -0.196532   
N107     N      0.275950000000     0.237290000000     0.831120000000    -0.170001   
N108     N      0.235630000000     0.283380000000     0.855970000000    -0.190257   
N109     N      0.474630000000     0.468820000000     0.878610000000    -0.169829   
N110     N      0.471580000000     0.468630000000     0.811750000000    -0.19323    
N111     N      0.525820000000     0.520310000000     0.628690000000    -0.171068   
N112     N      0.524530000000     0.523560000000     0.561810000000    -0.193314   
N113     N      0.856240000000     0.197810000000     0.964120000000    -0.171285   
N114     N      0.851640000000     0.195560000000     0.897380000000    -0.193477   
N115     N      0.802370000000     0.150940000000     0.647610000000    -0.171875   
N116     N      0.798160000000     0.144910000000     0.714490000000    -0.193061   
N117     N      0.143210000000     0.340710000000     0.725430000000    -0.171835   
N118     N      0.145870000000     0.342340000000     0.792270000000    -0.19381    
N119     N      0.193020000000     0.337950000000     0.475520000000    -0.171978   
N120     N      0.191860000000     0.337920000000     0.542310000000    -0.194117   
N121     N      0.955600000000     0.241400000000     0.583340000000    -0.171761   
N122     N      0.042890000000     0.285590000000     0.606660000000    -0.191054   
N123     N      0.291180000000     0.393130000000     0.662920000000    -0.171448   
N124     N      0.375670000000     0.431330000000     0.690650000000    -0.191984   
N125     N      0.507870000000     0.005000000000     0.883460000000    -0.154423   
N126     N      0.497060000000     0.986270000000     0.817240000000    -0.189988   
N127     N      0.468380000000     0.989600000000     0.633130000000    -0.17408    
N128     N      0.470090000000     0.989270000000     0.566960000000    -0.197861   
N129     N      0.706830000000     0.111940000000     0.527080000000    -0.171911   
N130     N      0.620670000000     0.068820000000     0.501600000000    -0.192122   
N131     N      0.197330000000     0.849220000000     0.794690000000    -0.170121   
N132     N      0.198380000000     0.851480000000     0.727780000000    -0.19196    
N133     N      0.141740000000     0.804860000000     0.478070000000    -0.170676   
N134     N      0.143340000000     0.802990000000     0.544860000000    -0.193853   
N135     N      0.291760000000     0.887460000000     0.916410000000    -0.169284   
N136     N      0.374320000000     0.930140000000     0.945030000000    -0.20001    
N137     N      0.805170000000     0.660960000000     0.896400000000    -0.170259   
N138     N      0.801560000000     0.664100000000     0.963090000000    -0.193433   
N139     N      0.850690000000     0.656870000000     0.646000000000    -0.1701     
N140     N      0.854710000000     0.658370000000     0.712960000000    -0.192064   
N141     N      0.622840000000     0.557320000000     0.750480000000    -0.172015   
N142     N      0.708220000000     0.598230000000     0.777180000000    -0.191481   
N143     N      0.044590000000     0.765450000000     0.857710000000    -0.170813   
N144     N      0.957790000000     0.724180000000     0.833380000000    -0.1916     
Ni1      Ni     0.831670000000     0.626770000000     0.308440000000     1.03376    
Ni2      Ni     0.834480000000     0.695690000000     0.301660000000     1.0189     
Ni3      Ni     0.169770000000     0.793170000000     0.384490000000     1.0171     
Ni4      Ni     0.168060000000     0.860380000000     0.388110000000     1.01747    
Ni5      Ni     0.497980000000     0.966310000000     0.976330000000     1.02937    
Ni6      Ni     0.492760000000     0.031840000000     0.974770000000     1.06013    
Ni7      Ni     0.163260000000     0.304140000000     0.136780000000     1.04441    
Ni8      Ni     0.172330000000     0.375990000000     0.130980000000     1.01425    
Ni9      Ni     0.833150000000     0.143170000000     0.053810000000     1.01277    
Ni10     Ni     0.828460000000     0.208700000000     0.058320000000     1.0154     
Ni11     Ni     0.501690000000     0.461990000000     0.217530000000     1.02449    
Ni12     Ni     0.497240000000     0.527470000000     0.223210000000     1.01709    
Ni13     Ni     0.202570000000     0.377320000000     0.381820000000     1.01525    
Ni14     Ni     0.136910000000     0.307170000000     0.386320000000     1.03448    
Ni15     Ni     0.366340000000     0.199180000000     0.305140000000     1.00966    
Ni16     Ni     0.294200000000     0.136250000000     0.299900000000     1.02283    
Ni17     Ni     0.029850000000     0.532250000000     0.972440000000     1.02171    
Ni18     Ni     0.962060000000     0.463590000000     0.468520000000     1.04346    
Ni19     Ni     0.687580000000     0.857070000000     0.140870000000     1.01252    
Ni20     Ni     0.619200000000     0.789350000000     0.136930000000     1.02299    
Ni21     Ni     0.858590000000     0.695250000000     0.052090000000     1.02862    
Ni22     Ni     0.791750000000     0.626420000000     0.057230000000     1.01967    
Ni23     Ni     0.518350000000     0.020320000000     0.223750000000     1.02683    
Ni24     Ni     0.450460000000     0.951890000000     0.226640000000     1.04583    
Ni25     Ni     0.298540000000     0.160610000000     0.049770000000     1.03668    
Ni26     Ni     0.368510000000     0.164660000000     0.055110000000     1.00535    
Ni27     Ni     0.465910000000     0.497410000000     0.972980000000     1.02227    
Ni28     Ni     0.533260000000     0.496110000000     0.967410000000     1.01849    
Ni29     Ni     0.139320000000     0.831980000000     0.139700000000     1.03622    
Ni30     Ni     0.204340000000     0.826760000000     0.132430000000     1.02103    
Ni31     Ni     0.967090000000     0.497370000000     0.218700000000     1.03204    
Ni32     Ni     0.035090000000     0.497010000000     0.222890000000     1.00974    
Ni33     Ni     0.790110000000     0.168590000000     0.309740000000     1.04219    
Ni34     Ni     0.854520000000     0.162160000000     0.303360000000     1.00478    
Ni35     Ni     0.618990000000     0.827210000000     0.384750000000     1.03968    
Ni36     Ni     0.689980000000     0.834650000000     0.392670000000     1.01439    
Ni37     Ni     0.831670000000     0.626770000000     0.808440000000     1.03364    
Ni38     Ni     0.834480000000     0.695680000000     0.801660000000     1.01872    
Ni39     Ni     0.169770000000     0.793170000000     0.884490000000     1.01715    
Ni40     Ni     0.168060000000     0.860380000000     0.888100000000     1.01774    
Ni41     Ni     0.497980000000     0.966310000000     0.476330000000     1.02962    
Ni42     Ni     0.492760000000     0.031840000000     0.474770000000     1.06021    
Ni43     Ni     0.163260000000     0.304140000000     0.636780000000     1.04439    
Ni44     Ni     0.172330000000     0.375990000000     0.630980000000     1.01419    
Ni45     Ni     0.833150000000     0.143170000000     0.553810000000     1.01271    
Ni46     Ni     0.828460000000     0.208700000000     0.558320000000     1.01541    
Ni47     Ni     0.501690000000     0.461990000000     0.717530000000     1.02439    
Ni48     Ni     0.497240000000     0.527470000000     0.723210000000     1.01728    
Ni49     Ni     0.202570000000     0.377320000000     0.881820000000     1.01516    
Ni50     Ni     0.136910000000     0.307170000000     0.886320000000     1.03447    
Ni51     Ni     0.366340000000     0.199180000000     0.805140000000     1.00954    
Ni52     Ni     0.294200000000     0.136250000000     0.799900000000     1.02263    
Ni53     Ni     0.029850000000     0.532250000000     0.472450000000     1.0216     
Ni54     Ni     0.962060000000     0.463600000000     0.968520000000     1.04319    
Ni55     Ni     0.687580000000     0.857070000000     0.640870000000     1.01253    
Ni56     Ni     0.619200000000     0.789350000000     0.636930000000     1.02298    
Ni57     Ni     0.858590000000     0.695240000000     0.552090000000     1.02859    
Ni58     Ni     0.791750000000     0.626420000000     0.557230000000     1.01956    
Ni59     Ni     0.518350000000     0.020320000000     0.723750000000     1.02664    
Ni60     Ni     0.450460000000     0.951890000000     0.726640000000     1.04591    
Ni61     Ni     0.298540000000     0.160610000000     0.549770000000     1.03667    
Ni62     Ni     0.368510000000     0.164660000000     0.555110000000     1.00536    
Ni63     Ni     0.465910000000     0.497410000000     0.472980000000     1.02231    
Ni64     Ni     0.533260000000     0.496110000000     0.467410000000     1.01873    
Ni65     Ni     0.139320000000     0.831980000000     0.639700000000     1.03623    
Ni66     Ni     0.204340000000     0.826760000000     0.632430000000     1.02115    
Ni67     Ni     0.967090000000     0.497370000000     0.718700000000     1.03191    
Ni68     Ni     0.035090000000     0.497010000000     0.722890000000     1.0098     
Ni69     Ni     0.790110000000     0.168590000000     0.809740000000     1.0422     
Ni70     Ni     0.854520000000     0.162160000000     0.803360000000     1.0048     
Ni71     Ni     0.618990000000     0.827210000000     0.884750000000     1.03966    
Ni72     Ni     0.689980000000     0.834650000000     0.892670000000     1.0144     
O1       O      0.846700000000     0.629540000000     0.263890000000    -0.422316   
O2       O      0.815400000000     0.627640000000     0.352300000000    -0.438276   
O3       O      0.770710000000     0.598730000000     0.296290000000    -0.421384   
O4       O      0.893390000000     0.659740000000     0.320240000000    -0.440247   
O5       O      0.895600000000     0.723800000000     0.313660000000    -0.425001   
O6       O      0.772690000000     0.662710000000     0.290140000000    -0.442586   
O7       O      0.819370000000     0.692860000000     0.346260000000    -0.435054   
O8       O      0.849950000000     0.694310000000     0.257570000000    -0.439311   
O9       O      0.151860000000     0.782420000000     0.428520000000    -0.440352   
O10      O      0.188590000000     0.809020000000     0.340650000000    -0.437803   
O11      O      0.229830000000     0.825150000000     0.399010000000    -0.441991   
O12      O      0.108850000000     0.765110000000     0.370810000000    -0.43861    
O13      O      0.106750000000     0.827410000000     0.376440000000    -0.442168   
O14      O      0.230120000000     0.889160000000     0.399040000000    -0.435824   
O15      O      0.182920000000     0.869670000000     0.343550000000    -0.442345   
O16      O      0.152460000000     0.846320000000     0.432560000000    -0.438871   
O17      O      0.512410000000     0.975950000000     0.431400000000    -0.433332   
O18      O      0.482340000000     0.961510000000     0.020750000000    -0.430229   
O19      O      0.436480000000     0.933200000000     0.465490000000    -0.437117   
O20      O      0.559120000000     0.003050000000     0.987360000000    -0.446691   
O21      O      0.554850000000     0.064240000000     0.985060000000    -0.427425   
O22      O      0.431650000000     0.994570000000     0.464180000000    -0.437958   
O23      O      0.479900000000     0.024040000000     0.019120000000    -0.459687   
O24      O      0.504690000000     0.035670000000     0.430390000000    -0.444107   
O25      O      0.147470000000     0.305620000000     0.180400000000    -0.446065   
O26      O      0.178890000000     0.306970000000     0.092610000000    -0.430745   
O27      O      0.224530000000     0.332310000000     0.149040000000    -0.442027   
O28      O      0.102910000000     0.280730000000     0.124280000000    -0.444307   
O29      O      0.110440000000     0.347380000000     0.119410000000    -0.419442   
O30      O      0.233000000000     0.399430000000     0.143020000000    -0.444777   
O31      O      0.187240000000     0.374010000000     0.086880000000    -0.440222   
O32      O      0.157780000000     0.373640000000     0.175650000000    -0.438985   
O33      O      0.849620000000     0.158550000000     0.009880000000    -0.444868   
O34      O      0.817140000000     0.132080000000     0.098190000000    -0.44575    
O35      O      0.771560000000     0.113200000000     0.041420000000    -0.442592   
O36      O      0.894020000000     0.177570000000     0.066310000000    -0.445143   
O37      O      0.890050000000     0.239050000000     0.070300000000    -0.44056    
O38      O      0.767710000000     0.174680000000     0.045950000000    -0.444216   
O39      O      0.812070000000     0.192960000000     0.102500000000    -0.438243   
O40      O      0.844040000000     0.219190000000     0.013630000000    -0.438068   
O41      O      0.518580000000     0.478880000000     0.173590000000    -0.438668   
O42      O      0.485380000000     0.449880000000     0.261960000000    -0.438846   
O43      O      0.440410000000     0.432410000000     0.204970000000    -0.424395   
O44      O      0.562130000000     0.495490000000     0.230530000000    -0.44728    
O45      O      0.558780000000     0.557170000000     0.235780000000    -0.440893   
O46      O      0.436610000000     0.493630000000     0.210300000000    -0.441246   
O47      O      0.480170000000     0.510560000000     0.267050000000    -0.42583    
O48      O      0.513360000000     0.539570000000     0.178800000000    -0.4416     
O49      O      0.186120000000     0.377700000000     0.337570000000    -0.435947   
O50      O      0.213930000000     0.372140000000     0.426250000000    -0.437795   
O51      O      0.232990000000     0.346490000000     0.369160000000    -0.419871   
O52      O      0.168490000000     0.403510000000     0.395370000000    -0.444459   
O53      O      0.106070000000     0.338290000000     0.397620000000    -0.437914   
O54      O      0.171990000000     0.281160000000     0.374240000000    -0.439029   
O55      O      0.152250000000     0.306630000000     0.430200000000    -0.447318   
O56      O      0.125960000000     0.311450000000     0.342270000000    -0.434569   
O57      O      0.365820000000     0.182400000000     0.349060000000    -0.44105    
O58      O      0.362880000000     0.211330000000     0.260660000000    -0.439953   
O59      O      0.337650000000     0.232110000000     0.317530000000    -0.434313   
O60      O      0.389800000000     0.162230000000     0.292400000000    -0.443632   
O61      O      0.322440000000     0.103430000000     0.287140000000    -0.440774   
O62      O      0.270570000000     0.172780000000     0.312780000000    -0.440036   
O63      O      0.294920000000     0.153320000000     0.255940000000    -0.424225   
O64      O      0.298160000000     0.123810000000     0.344370000000    -0.439048   
O65      O      0.032450000000     0.517760000000     0.016640000000    -0.423657   
O66      O      0.022180000000     0.541090000000     0.427710000000    -0.427366   
O67      O      0.995420000000     0.558750000000     0.984600000000    -0.439654   
O68      O      0.060500000000     0.501920000000     0.460140000000    -0.440097   
O69      O      0.997240000000     0.437560000000     0.456970000000    -0.43007    
O70      O      0.931870000000     0.495190000000     0.979810000000    -0.440075   
O71      O      0.960430000000     0.475340000000     0.424240000000    -0.438922   
O72      O      0.967720000000     0.455120000000     0.013060000000    -0.451323   
O73      O      0.680330000000     0.867850000000     0.096860000000    -0.44481    
O74      O      0.691160000000     0.841850000000     0.184430000000    -0.442842   
O75      O      0.716710000000     0.825820000000     0.126940000000    -0.442789   
O76      O      0.653470000000     0.883700000000     0.154840000000    -0.443335   
O77      O      0.590020000000     0.820460000000     0.150620000000    -0.425369   
O78      O      0.652990000000     0.762180000000     0.123680000000    -0.440662   
O79      O      0.626340000000     0.779260000000     0.181360000000    -0.436912   
O80      O      0.616150000000     0.804700000000     0.093000000000    -0.433824   
O81      O      0.870220000000     0.690120000000     0.096420000000    -0.436142   
O82      O      0.842450000000     0.696670000000     0.008300000000    -0.424072   
O83      O      0.826190000000     0.723500000000     0.065190000000    -0.420341   
O84      O      0.886490000000     0.661920000000     0.039140000000    -0.440013   
O85      O      0.823870000000     0.598030000000     0.044080000000    -0.425981   
O86      O      0.763650000000     0.659540000000     0.069990000000    -0.44313    
O87      O      0.780420000000     0.631680000000     0.012810000000    -0.438973   
O88      O      0.808150000000     0.625130000000     0.101100000000    -0.437037   
O89      O      0.526490000000     0.013720000000     0.268370000000    -0.445826   
O90      O      0.505330000000     0.022180000000     0.179500000000    -0.450207   
O91      O      0.485270000000     0.048740000000     0.234590000000    -0.447427   
O92      O      0.547050000000     0.987580000000     0.212840000000    -0.446329   
O93      O      0.484550000000     0.923260000000     0.218670000000    -0.439554   
O94      O      0.421290000000     0.985570000000     0.233890000000    -0.414045   
O95      O      0.444810000000     0.955490000000     0.181640000000    -0.448197   
O96      O      0.460090000000     0.952730000000     0.271630000000    -0.434393   
O97      O      0.297620000000     0.143270000000     0.006060000000    -0.426163   
O98      O      0.303150000000     0.177310000000     0.093960000000    -0.437448   
O99      O      0.330350000000     0.221840000000     0.036890000000    -0.439287   
O100     O      0.271940000000     0.100220000000     0.063050000000    -0.42063    
O101     O      0.336950000000     0.103410000000     0.067490000000    -0.442478   
O102     O      0.395500000000     0.225160000000     0.042550000000    -0.445064   
O103     O      0.368660000000     0.181260000000     0.099240000000    -0.438071   
O104     O      0.363870000000     0.148740000000     0.010430000000    -0.439123   
O105     O      0.482400000000     0.514600000000     0.016940000000    -0.424025   
O106     O      0.454380000000     0.481080000000     0.428500000000    -0.436779   
O107     O      0.438240000000     0.436330000000     0.985480000000    -0.443358   
O108     O      0.497600000000     0.557840000000     0.460090000000    -0.439401   
O109     O      0.561130000000     0.557600000000     0.455190000000    -0.43881    
O110     O      0.501070000000     0.435340000000     0.980040000000    -0.425534   
O111     O      0.517110000000     0.479250000000     0.423470000000    -0.439943   
O112     O      0.544650000000     0.511940000000     0.011870000000    -0.43942    
O113     O      0.156870000000     0.846790000000     0.183680000000    -0.442885   
O114     O      0.126480000000     0.817550000000     0.095060000000    -0.439819   
O115     O      0.109390000000     0.770650000000     0.150890000000    -0.428178   
O116     O      0.173030000000     0.892550000000     0.128140000000    -0.449692   
O117     O      0.234130000000     0.888570000000     0.120210000000    -0.432711   
O118     O      0.170160000000     0.765810000000     0.145120000000    -0.428113   
O119     O      0.186110000000     0.810430000000     0.088790000000    -0.425795   
O120     O      0.217750000000     0.842100000000     0.176770000000    -0.42145    
O121     O      0.974440000000     0.515710000000     0.262850000000    -0.437264   
O122     O      0.964630000000     0.479230000000     0.174810000000    -0.440997   
O123     O      0.937860000000     0.437190000000     0.232320000000    -0.445422   
O124     O      0.000440000000     0.557430000000     0.205520000000    -0.447696   
O125     O      0.064720000000     0.559290000000     0.212500000000    -0.436836   
O126     O      0.000560000000     0.434820000000     0.232810000000    -0.436571   
O127     O      0.031040000000     0.484690000000     0.178070000000    -0.441792   
O128     O      0.034510000000     0.508800000000     0.267530000000    -0.445825   
O129     O      0.777380000000     0.153230000000     0.265340000000    -0.425243   
O130     O      0.807770000000     0.185180000000     0.353420000000    -0.425488   
O131     O      0.825200000000     0.228980000000     0.297070000000    -0.415568   
O132     O      0.758970000000     0.107160000000     0.322080000000    -0.439485   
O133     O      0.819430000000     0.101490000000     0.316040000000    -0.442977   
O134     O      0.885560000000     0.223600000000     0.291120000000    -0.439624   
O135     O      0.867460000000     0.178090000000     0.347770000000    -0.441909   
O136     O      0.837190000000     0.146510000000     0.259370000000    -0.441767   
O137     O      0.619220000000     0.840670000000     0.429450000000    -0.418812   
O138     O      0.622750000000     0.812940000000     0.340790000000    -0.43885    
O139     O      0.593810000000     0.766450000000     0.396120000000    -0.422405   
O140     O      0.649080000000     0.889040000000     0.373820000000    -0.421827   
O141     O      0.715280000000     0.895640000000     0.380820000000    -0.437402   
O142     O      0.659660000000     0.772730000000     0.403890000000    -0.438666   
O143     O      0.689400000000     0.820370000000     0.348210000000    -0.425247   
O144     O      0.686280000000     0.849010000000     0.436580000000    -0.441534   
O145     O      0.846700000000     0.629540000000     0.763900000000    -0.422337   
O146     O      0.815400000000     0.627640000000     0.852310000000    -0.438188   
O147     O      0.770710000000     0.598730000000     0.796290000000    -0.421369   
O148     O      0.893390000000     0.659740000000     0.820240000000    -0.440221   
O149     O      0.895600000000     0.723800000000     0.813660000000    -0.424959   
O150     O      0.772690000000     0.662710000000     0.790140000000    -0.442546   
O151     O      0.819360000000     0.692860000000     0.846260000000    -0.43495    
O152     O      0.849960000000     0.694310000000     0.757570000000    -0.43929    
O153     O      0.151860000000     0.782430000000     0.928520000000    -0.440542   
O154     O      0.188590000000     0.809020000000     0.840650000000    -0.437713   
O155     O      0.229830000000     0.825150000000     0.899010000000    -0.442049   
O156     O      0.108850000000     0.765110000000     0.870810000000    -0.438707   
O157     O      0.106750000000     0.827410000000     0.876440000000    -0.442152   
O158     O      0.230120000000     0.889150000000     0.899040000000    -0.435969   
O159     O      0.182920000000     0.869670000000     0.843560000000    -0.442612   
O160     O      0.152460000000     0.846310000000     0.932560000000    -0.438989   
O161     O      0.512410000000     0.975950000000     0.931400000000    -0.433303   
O162     O      0.482340000000     0.961510000000     0.520750000000    -0.430315   
O163     O      0.436480000000     0.933200000000     0.965490000000    -0.43707    
O164     O      0.559110000000     0.003050000000     0.487360000000    -0.446812   
O165     O      0.554850000000     0.064240000000     0.485060000000    -0.427426   
O166     O      0.431650000000     0.994570000000     0.964180000000    -0.43794    
O167     O      0.479900000000     0.024040000000     0.519120000000    -0.459759   
O168     O      0.504690000000     0.035670000000     0.930390000000    -0.444099   
O169     O      0.147470000000     0.305620000000     0.680400000000    -0.446013   
O170     O      0.178890000000     0.306970000000     0.592610000000    -0.430738   
O171     O      0.224530000000     0.332310000000     0.649040000000    -0.442026   
O172     O      0.102910000000     0.280730000000     0.624280000000    -0.444305   
O173     O      0.110440000000     0.347380000000     0.619410000000    -0.419431   
O174     O      0.233000000000     0.399430000000     0.643020000000    -0.444772   
O175     O      0.187240000000     0.374010000000     0.586880000000    -0.44021    
O176     O      0.157780000000     0.373650000000     0.675650000000    -0.43883    
O177     O      0.849620000000     0.158550000000     0.509880000000    -0.444965   
O178     O      0.817140000000     0.132080000000     0.598190000000    -0.445756   
O179     O      0.771560000000     0.113200000000     0.541410000000    -0.442573   
O180     O      0.894020000000     0.177570000000     0.566310000000    -0.445117   
O181     O      0.890050000000     0.239050000000     0.570300000000    -0.440549   
O182     O      0.767710000000     0.174680000000     0.545950000000    -0.444229   
O183     O      0.812070000000     0.192960000000     0.602500000000    -0.438249   
O184     O      0.844040000000     0.219190000000     0.513630000000    -0.438178   
O185     O      0.518580000000     0.478880000000     0.673590000000    -0.438652   
O186     O      0.485380000000     0.449870000000     0.761960000000    -0.438671   
O187     O      0.440410000000     0.432410000000     0.704970000000    -0.424419   
O188     O      0.562130000000     0.495490000000     0.730530000000    -0.447267   
O189     O      0.558780000000     0.557170000000     0.735770000000    -0.440941   
O190     O      0.436610000000     0.493630000000     0.710290000000    -0.441375   
O191     O      0.480170000000     0.510560000000     0.767040000000    -0.425882   
O192     O      0.513360000000     0.539570000000     0.678800000000    -0.441608   
O193     O      0.186120000000     0.377700000000     0.837570000000    -0.435938   
O194     O      0.213930000000     0.372140000000     0.926250000000    -0.437866   
O195     O      0.232990000000     0.346490000000     0.869160000000    -0.419854   
O196     O      0.168480000000     0.403510000000     0.895370000000    -0.444475   
O197     O      0.106070000000     0.338290000000     0.897620000000    -0.43795    
O198     O      0.171990000000     0.281160000000     0.874240000000    -0.439029   
O199     O      0.152250000000     0.306630000000     0.930200000000    -0.447228   
O200     O      0.125960000000     0.311450000000     0.842270000000    -0.434566   
O201     O      0.365820000000     0.182400000000     0.849060000000    -0.441036   
O202     O      0.362890000000     0.211330000000     0.760660000000    -0.439855   
O203     O      0.337650000000     0.232110000000     0.817530000000    -0.434296   
O204     O      0.389810000000     0.162230000000     0.792400000000    -0.443496   
O205     O      0.322440000000     0.103430000000     0.787140000000    -0.440741   
O206     O      0.270570000000     0.172780000000     0.812780000000    -0.44001    
O207     O      0.294920000000     0.153320000000     0.755940000000    -0.424159   
O208     O      0.298160000000     0.123810000000     0.844380000000    -0.438973   
O209     O      0.032450000000     0.517760000000     0.516640000000    -0.423884   
O210     O      0.022170000000     0.541090000000     0.927710000000    -0.427503   
O211     O      0.995420000000     0.558760000000     0.484600000000    -0.439494   
O212     O      0.060500000000     0.501930000000     0.960140000000    -0.440107   
O213     O      0.997240000000     0.437560000000     0.956970000000    -0.429827   
O214     O      0.931870000000     0.495180000000     0.479810000000    -0.439975   
O215     O      0.960430000000     0.475340000000     0.924240000000    -0.438997   
O216     O      0.967720000000     0.455120000000     0.513060000000    -0.451439   
O217     O      0.680330000000     0.867850000000     0.596860000000    -0.444811   
O218     O      0.691160000000     0.841860000000     0.684430000000    -0.442792   
O219     O      0.716710000000     0.825820000000     0.626940000000    -0.4428     
O220     O      0.653470000000     0.883700000000     0.654840000000    -0.443341   
O221     O      0.590020000000     0.820460000000     0.650620000000    -0.425466   
O222     O      0.652990000000     0.762180000000     0.623680000000    -0.440669   
O223     O      0.626340000000     0.779260000000     0.681360000000    -0.436885   
O224     O      0.616150000000     0.804700000000     0.593000000000    -0.433823   
O225     O      0.870220000000     0.690120000000     0.596420000000    -0.436149   
O226     O      0.842450000000     0.696670000000     0.508300000000    -0.424086   
O227     O      0.826190000000     0.723500000000     0.565190000000    -0.420245   
O228     O      0.886490000000     0.661920000000     0.539140000000    -0.440109   
O229     O      0.823870000000     0.598030000000     0.544070000000    -0.425994   
O230     O      0.763650000000     0.659540000000     0.569990000000    -0.443105   
O231     O      0.780420000000     0.631680000000     0.512810000000    -0.438974   
O232     O      0.808150000000     0.625130000000     0.601100000000    -0.437036   
O233     O      0.526490000000     0.013720000000     0.768370000000    -0.445793   
O234     O      0.505330000000     0.022180000000     0.679490000000    -0.450155   
O235     O      0.485270000000     0.048740000000     0.734590000000    -0.44741    
O236     O      0.547050000000     0.987580000000     0.712840000000    -0.446301   
O237     O      0.484550000000     0.923260000000     0.718670000000    -0.439553   
O238     O      0.421290000000     0.985570000000     0.733890000000    -0.414064   
O239     O      0.444820000000     0.955490000000     0.681640000000    -0.448306   
O240     O      0.460090000000     0.952730000000     0.771630000000    -0.434402   
O241     O      0.297620000000     0.143270000000     0.506060000000    -0.426282   
O242     O      0.303150000000     0.177310000000     0.593960000000    -0.437361   
O243     O      0.330350000000     0.221840000000     0.536890000000    -0.439297   
O244     O      0.271940000000     0.100220000000     0.563050000000    -0.42064    
O245     O      0.336950000000     0.103410000000     0.567490000000    -0.442489   
O246     O      0.395500000000     0.225160000000     0.542550000000    -0.445072   
O247     O      0.368660000000     0.181260000000     0.599240000000    -0.438004   
O248     O      0.363870000000     0.148740000000     0.510430000000    -0.439237   
O249     O      0.482400000000     0.514600000000     0.516940000000    -0.424028   
O250     O      0.454380000000     0.481080000000     0.928500000000    -0.436775   
O251     O      0.438240000000     0.436330000000     0.485480000000    -0.443326   
O252     O      0.497600000000     0.557840000000     0.960090000000    -0.439417   
O253     O      0.561130000000     0.557610000000     0.955190000000    -0.438817   
O254     O      0.501070000000     0.435340000000     0.480030000000    -0.425522   
O255     O      0.517110000000     0.479250000000     0.923470000000    -0.439935   
O256     O      0.544650000000     0.511940000000     0.511870000000    -0.439433   
O257     O      0.156870000000     0.846780000000     0.683680000000    -0.442977   
O258     O      0.126480000000     0.817550000000     0.595060000000    -0.439739   
O259     O      0.109390000000     0.770650000000     0.650890000000    -0.42818    
O260     O      0.173030000000     0.892550000000     0.628140000000    -0.449708   
O261     O      0.234130000000     0.888570000000     0.620210000000    -0.432747   
O262     O      0.170160000000     0.765820000000     0.645120000000    -0.42823    
O263     O      0.186110000000     0.810420000000     0.588790000000    -0.425754   
O264     O      0.217750000000     0.842100000000     0.676770000000    -0.421492   
O265     O      0.974440000000     0.515700000000     0.762850000000    -0.437343   
O266     O      0.964630000000     0.479230000000     0.674810000000    -0.440941   
O267     O      0.937860000000     0.437190000000     0.732320000000    -0.445313   
O268     O      0.000440000000     0.557440000000     0.705520000000    -0.447581   
O269     O      0.064720000000     0.559290000000     0.712500000000    -0.436836   
O270     O      0.000560000000     0.434820000000     0.732810000000    -0.436659   
O271     O      0.031040000000     0.484690000000     0.678070000000    -0.441825   
O272     O      0.034510000000     0.508800000000     0.767530000000    -0.445857   
O273     O      0.777380000000     0.153230000000     0.765340000000    -0.425243   
O274     O      0.807770000000     0.185180000000     0.853420000000    -0.425462   
O275     O      0.825200000000     0.228980000000     0.797070000000    -0.415572   
O276     O      0.758970000000     0.107160000000     0.822080000000    -0.439539   
O277     O      0.819420000000     0.101490000000     0.816040000000    -0.443117   
O278     O      0.885560000000     0.223600000000     0.791120000000    -0.43963    
O279     O      0.867460000000     0.178090000000     0.847770000000    -0.441888   
O280     O      0.837190000000     0.146510000000     0.759370000000    -0.441767   
O281     O      0.619220000000     0.840670000000     0.929450000000    -0.418811   
O282     O      0.622750000000     0.812940000000     0.840790000000    -0.438847   
O283     O      0.593810000000     0.766450000000     0.896120000000    -0.422401   
O284     O      0.649080000000     0.889040000000     0.873820000000    -0.421726   
O285     O      0.715280000000     0.895640000000     0.880820000000    -0.437399   
O286     O      0.659660000000     0.772730000000     0.903890000000    -0.438672   
O287     O      0.689400000000     0.820370000000     0.848210000000    -0.425248   
O288     O      0.686280000000     0.849010000000     0.936580000000    -0.44154    


