data_structure

_audit_creation_method RASPA-1.0
_audit_creation_date 2023-5-23
_audit_author_name 'Poobodin Mano'

_cell_length_a    42.3383
_cell_length_b    42.348
_cell_length_c    42.5888
_cell_angle_alpha 90
_cell_angle_beta  90
_cell_angle_gamma 89.9969
_cell_volume      76359.3

_symmetry_cell_setting          triclinic
_symmetry_space_group_name_Hall 'P 1'
_symmetry_space_group_name_H-M  'P 1'
_symmetry_Int_Tables_number     1

_symmetry_equiv_pos_as_xyz 'x,y,z'

loop_
_atom_site_label
_atom_site_type_symbol
_atom_site_fract_x
_atom_site_fract_y
_atom_site_fract_z
_atom_site_charge
C1       C      0.008150000000     0.068130000000     0.507420000000     0.432046   
C2       C      0.007780000000     0.447930000000     0.502840000000     0.432403   
C3       C      0.068370000000     0.007810000000     0.004590000000     0.427185   
C4       C      0.448090000000     0.008230000000     0.005670000000     0.427511   
C5       C      0.508230000000     0.447900000000     0.252630000000     0.434173   
C6       C      0.508420000000     0.068180000000     0.257750000000     0.433802   
C7       C      0.448190000000     0.507550000000     0.252060000000     0.433943   
C8       C      0.068460000000     0.508530000000     0.258330000000     0.433462   
C9       C      0.008070000000     0.197900000000     0.506730000000     0.426196   
C10      C      0.007860000000     0.318210000000     0.003700000000     0.425685   
C11      C      0.509100000000     0.257260000000     0.445230000000     0.4317     
C12      C      0.507070000000     0.258890000000     0.065220000000     0.431473   
C13      C      0.507790000000     0.318240000000     0.253220000000     0.434716   
C14      C      0.508830000000     0.197860000000     0.257220000000     0.434963   
C15      C      0.007120000000     0.256800000000     0.195200000000     0.424435   
C16      C      0.009470000000     0.259350000000     0.315250000000     0.42425    
C17      C      0.257030000000     0.508250000000     0.065220000000     0.431789   
C18      C      0.259630000000     0.507850000000     0.445150000000     0.431999   
C19      C      0.198120000000     0.007740000000     0.004140000000     0.426657   
C20      C      0.318510000000     0.008360000000     0.006220000000     0.427261   
C21      C      0.260760000000     0.508180000000     0.315180000000     0.432232   
C22      C      0.255900000000     0.507920000000     0.195190000000     0.43208    
C23      C      0.318500000000     0.507140000000     0.252240000000     0.434461   
C24      C      0.198150000000     0.508960000000     0.258140000000     0.434289   
C25      C      0.260830000000     0.035760000000     0.396630000000     0.0302376  
C26      C      0.260730000000     0.480070000000     0.396510000000     0.0311616  
C27      C      0.261120000000     0.480240000000     0.363720000000     0.0312272  
C28      C      0.261270000000     0.035930000000     0.363840000000     0.030137   
C29      C      0.256040000000     0.036020000000     0.113870000000     0.0301332  
C30      C      0.255750000000     0.480330000000     0.113740000000     0.031072   
C31      C      0.255310000000     0.480170000000     0.146530000000     0.0312249  
C32      C      0.255640000000     0.035860000000     0.146660000000     0.0301007  
C33      C      0.481760000000     0.259390000000     0.396550000000     0.0310617  
C34      C      0.037400000000     0.256760000000     0.396730000000     0.0302838  
C35      C      0.037560000000     0.257650000000     0.363870000000     0.0301694  
C36      C      0.481910000000     0.260070000000     0.363840000000     0.0311389  
C37      C      0.478960000000     0.256680000000     0.113760000000     0.03133    
C38      C      0.034580000000     0.259680000000     0.113860000000     0.0300297  
C39      C      0.034570000000     0.258820000000     0.146560000000     0.0299703  
C40      C      0.478930000000     0.256030000000     0.146620000000     0.0312242  
C41      C      0.116750000000     0.029800000000     0.240600000000     0.0330837  
C42      C      0.116830000000     0.489720000000     0.279220000000     0.0331847  
C43      C      0.149840000000     0.488530000000     0.277730000000     0.0334549  
C44      C      0.149660000000     0.030910000000     0.241600000000     0.0319282  
C45      C      0.399820000000     0.026370000000     0.231170000000     0.0323233  
C46      C      0.399890000000     0.486280000000     0.269790000000     0.0338302  
C47      C      0.366990000000     0.485180000000     0.268780000000     0.0331686  
C48      C      0.366810000000     0.027560000000     0.232660000000     0.0323379  
C49      C      0.487200000000     0.399680000000     0.270810000000     0.0338354  
C50      C      0.027170000000     0.399450000000     0.232070000000     0.032426   
C51      C      0.028370000000     0.366470000000     0.233680000000     0.0322993  
C52      C      0.486110000000     0.366780000000     0.269950000000     0.0333497  
C53      C      0.029300000000     0.116430000000     0.239450000000     0.0329946  
C54      C      0.489590000000     0.116630000000     0.278460000000     0.0331086  
C55      C      0.488380000000     0.149610000000     0.276880000000     0.0334161  
C56      C      0.030390000000     0.149320000000     0.240310000000     0.0319864  
C57      C      0.116840000000     0.487210000000     0.023130000000     0.0319153  
C58      C      0.116710000000     0.028030000000     0.485280000000     0.032076   
C59      C      0.149660000000     0.029090000000     0.486370000000     0.0323021  
C60      C      0.149770000000     0.486070000000     0.021730000000     0.0328348  
C61      C      0.366770000000     0.028350000000     0.486720000000     0.0324422  
C62      C      0.366910000000     0.488660000000     0.025780000000     0.0331648  
C63      C      0.399850000000     0.489870000000     0.026800000000     0.0331668  
C64      C      0.399690000000     0.027010000000     0.485330000000     0.0330988  
C65      C      0.026680000000     0.399480000000     0.482160000000     0.0321248  
C66      C      0.487480000000     0.399630000000     0.021680000000     0.0327587  
C67      C      0.486600000000     0.366740000000     0.020990000000     0.0327153  
C68      C      0.028070000000     0.366500000000     0.483840000000     0.0320657  
C69      C      0.487060000000     0.149340000000     0.489220000000     0.033259   
C70      C      0.028300000000     0.149590000000     0.026610000000     0.0314319  
C71      C      0.026970000000     0.116600000000     0.028220000000     0.0311316  
C72      C      0.487970000000     0.116450000000     0.488510000000     0.0334832  
C73      C      0.008150000000     0.068130000000     0.007420000000     0.426552   
C74      C      0.007780000000     0.447930000000     0.002840000000     0.426987   
C75      C      0.068370000000     0.007810000000     0.504590000000     0.432615   
C76      C      0.448090000000     0.008230000000     0.505670000000     0.43297    
C77      C      0.508230000000     0.447900000000     0.752630000000     0.434164   
C78      C      0.508420000000     0.068180000000     0.757750000000     0.433796   
C79      C      0.448190000000     0.507550000000     0.752060000000     0.433673   
C80      C      0.068460000000     0.508530000000     0.758330000000     0.433459   
C81      C      0.008070000000     0.197900000000     0.006730000000     0.425532   
C82      C      0.007860000000     0.318210000000     0.503700000000     0.426343   
C83      C      0.509100000000     0.257260000000     0.945230000000     0.43108    
C84      C      0.507070000000     0.258890000000     0.565220000000     0.431764   
C85      C      0.507790000000     0.318240000000     0.753220000000     0.434705   
C86      C      0.508830000000     0.197860000000     0.757220000000     0.434972   
C87      C      0.007120000000     0.256800000000     0.695200000000     0.424437   
C88      C      0.009470000000     0.259350000000     0.815250000000     0.424304   
C89      C      0.257030000000     0.508250000000     0.565220000000     0.432119   
C90      C      0.259630000000     0.507850000000     0.945150000000     0.431415   
C91      C      0.198120000000     0.007740000000     0.504140000000     0.427333   
C92      C      0.318510000000     0.008360000000     0.506220000000     0.427922   
C93      C      0.260760000000     0.508180000000     0.815180000000     0.432276   
C94      C      0.255900000000     0.507920000000     0.695190000000     0.432081   
C95      C      0.318500000000     0.507140000000     0.752240000000     0.434467   
C96      C      0.198150000000     0.508960000000     0.758140000000     0.434298   
C97      C      0.260830000000     0.035760000000     0.896630000000     0.0304039  
C98      C      0.260730000000     0.480070000000     0.896510000000     0.0313718  
C99      C      0.261120000000     0.480240000000     0.863720000000     0.0313943  
C100     C      0.261270000000     0.035930000000     0.863840000000     0.0302983  
C101     C      0.256040000000     0.036020000000     0.613870000000     0.0302057  
C102     C      0.255750000000     0.480330000000     0.613750000000     0.0310939  
C103     C      0.255310000000     0.480170000000     0.646530000000     0.0312641  
C104     C      0.255640000000     0.035860000000     0.646660000000     0.0301419  
C105     C      0.481760000000     0.259390000000     0.896550000000     0.0312498  
C106     C      0.037400000000     0.256760000000     0.896730000000     0.0304751  
C107     C      0.037560000000     0.257650000000     0.863870000000     0.0303371  
C108     C      0.481910000000     0.260070000000     0.863840000000     0.0313009  
C109     C      0.478960000000     0.256680000000     0.613760000000     0.0313917  
C110     C      0.034580000000     0.259680000000     0.613860000000     0.0300991  
C111     C      0.034570000000     0.258820000000     0.646560000000     0.0299994  
C112     C      0.478930000000     0.256030000000     0.646620000000     0.0312647  
C113     C      0.116750000000     0.029800000000     0.740600000000     0.0331095  
C114     C      0.116830000000     0.489720000000     0.779220000000     0.0332318  
C115     C      0.149840000000     0.488530000000     0.777730000000     0.0334967  
C116     C      0.149660000000     0.030910000000     0.741600000000     0.0319596  
C117     C      0.399820000000     0.026370000000     0.731170000000     0.0323318  
C118     C      0.399890000000     0.486280000000     0.769790000000     0.0338555  
C119     C      0.366990000000     0.485180000000     0.768780000000     0.0332086  
C120     C      0.366810000000     0.027560000000     0.732660000000     0.0323707  
C121     C      0.487200000000     0.399680000000     0.770810000000     0.0338752  
C122     C      0.027170000000     0.399450000000     0.732070000000     0.0324463  
C123     C      0.028370000000     0.366470000000     0.733680000000     0.0323277  
C124     C      0.486110000000     0.366780000000     0.769950000000     0.033389   
C125     C      0.029300000000     0.116430000000     0.739450000000     0.0329972  
C126     C      0.489590000000     0.116630000000     0.778460000000     0.0331517  
C127     C      0.488380000000     0.149610000000     0.776880000000     0.0334577  
C128     C      0.030390000000     0.149320000000     0.740310000000     0.0320321  
C129     C      0.116840000000     0.487210000000     0.523130000000     0.0328532  
C130     C      0.116710000000     0.028030000000     0.985280000000     0.0352701  
C131     C      0.149660000000     0.029090000000     0.986370000000     0.0360717  
C132     C      0.149770000000     0.486070000000     0.521730000000     0.0334099  
C133     C      0.366770000000     0.028340000000     0.986720000000     0.0362119  
C134     C      0.366910000000     0.488660000000     0.525780000000     0.0337145  
C135     C      0.399850000000     0.489870000000     0.526800000000     0.0339979  
C136     C      0.399690000000     0.027010000000     0.985330000000     0.0362343  
C137     C      0.026680000000     0.399480000000     0.982160000000     0.0353385  
C138     C      0.487480000000     0.399630000000     0.521680000000     0.0335934  
C139     C      0.486600000000     0.366740000000     0.520990000000     0.0332818  
C140     C      0.028070000000     0.366500000000     0.983840000000     0.0358438  
C141     C      0.487060000000     0.149340000000     0.989220000000     0.0369913  
C142     C      0.028300000000     0.149590000000     0.526610000000     0.0320124  
C143     C      0.026970000000     0.116600000000     0.528220000000     0.0320605  
C144     C      0.487970000000     0.116450000000     0.988510000000     0.0366602  
C145     C      0.008150000000     0.568130000000     0.507420000000     0.432502   
C146     C      0.007780000000     0.947930000000     0.502840000000     0.431539   
C147     C      0.068370000000     0.507810000000     0.004590000000     0.428133   
C148     C      0.448090000000     0.508230000000     0.005670000000     0.428593   
C149     C      0.508230000000     0.947900000000     0.252630000000     0.43333    
C150     C      0.508420000000     0.568180000000     0.257750000000     0.434246   
C151     C      0.448190000000     0.007550000000     0.252060000000     0.432984   
C152     C      0.068460000000     0.008530000000     0.258330000000     0.432456   
C153     C      0.008070000000     0.697900000000     0.506730000000     0.42621    
C154     C      0.007860000000     0.818210000000     0.003700000000     0.42577    
C155     C      0.509100000000     0.757260000000     0.445230000000     0.431716   
C156     C      0.507070000000     0.758890000000     0.065220000000     0.431426   
C157     C      0.507790000000     0.818240000000     0.253220000000     0.434768   
C158     C      0.508830000000     0.697860000000     0.257220000000     0.434696   
C159     C      0.007120000000     0.756800000000     0.195200000000     0.424479   
C160     C      0.009470000000     0.759350000000     0.315250000000     0.424557   
C161     C      0.257040000000     0.008250000000     0.065220000000     0.42422    
C162     C      0.259620000000     0.007850000000     0.445150000000     0.42457    
C163     C      0.198120000000     0.507740000000     0.004140000000     0.434467   
C164     C      0.318500000000     0.508360000000     0.006220000000     0.435158   
C165     C      0.260760000000     0.008170000000     0.315180000000     0.424414   
C166     C      0.255900000000     0.007920000000     0.195190000000     0.424416   
C167     C      0.318500000000     0.007140000000     0.252240000000     0.426621   
C168     C      0.198150000000     0.008960000000     0.258140000000     0.426526   
C169     C      0.260820000000     0.535760000000     0.396630000000     0.0312368  
C170     C      0.260730000000     0.980070000000     0.396510000000     0.0359095  
C171     C      0.261120000000     0.980240000000     0.363720000000     0.0358427  
C172     C      0.261270000000     0.535930000000     0.363840000000     0.0311773  
C173     C      0.256040000000     0.536020000000     0.113870000000     0.0311777  
C174     C      0.255750000000     0.980330000000     0.113740000000     0.0357097  
C175     C      0.255310000000     0.980170000000     0.146530000000     0.0359448  
C176     C      0.255640000000     0.535860000000     0.146660000000     0.0311063  
C177     C      0.481770000000     0.759390000000     0.396550000000     0.0312055  
C178     C      0.037400000000     0.756760000000     0.396730000000     0.0303252  
C179     C      0.037560000000     0.757650000000     0.363870000000     0.0302166  
C180     C      0.481910000000     0.760070000000     0.363840000000     0.0311341  
C181     C      0.478960000000     0.756680000000     0.113760000000     0.0313805  
C182     C      0.034580000000     0.759690000000     0.113860000000     0.0300662  
C183     C      0.034570000000     0.758810000000     0.146560000000     0.0300207  
C184     C      0.478930000000     0.756030000000     0.146620000000     0.0312349  
C185     C      0.116750000000     0.529800000000     0.240590000000     0.0337509  
C186     C      0.116830000000     0.989720000000     0.279220000000     0.0385954  
C187     C      0.149840000000     0.988530000000     0.277730000000     0.0380209  
C188     C      0.149660000000     0.530900000000     0.241600000000     0.0332459  
C189     C      0.399820000000     0.526370000000     0.231170000000     0.0331867  
C190     C      0.399890000000     0.986280000000     0.269790000000     0.0392314  
C191     C      0.366990000000     0.985180000000     0.268780000000     0.0377485  
C192     C      0.366810000000     0.527560000000     0.232660000000     0.0336036  
C193     C      0.487200000000     0.899680000000     0.270810000000     0.0341172  
C194     C      0.027170000000     0.899450000000     0.232070000000     0.0326773  
C195     C      0.028370000000     0.866470000000     0.233680000000     0.0325117  
C196     C      0.486110000000     0.866780000000     0.269950000000     0.0334729  
C197     C      0.029300000000     0.616430000000     0.239450000000     0.0331323  
C198     C      0.489590000000     0.616630000000     0.278460000000     0.0331756  
C199     C      0.488380000000     0.649610000000     0.276880000000     0.0334351  
C200     C      0.030390000000     0.649320000000     0.240310000000     0.0319679  
C201     C      0.116840000000     0.987210000000     0.023130000000     0.0372779  
C202     C      0.116710000000     0.528030000000     0.485280000000     0.0328462  
C203     C      0.149660000000     0.529090000000     0.486370000000     0.03353    
C204     C      0.149770000000     0.986070000000     0.021730000000     0.0373819  
C205     C      0.366770000000     0.528350000000     0.486720000000     0.0336532  
C206     C      0.366900000000     0.988660000000     0.025780000000     0.0378318  
C207     C      0.399860000000     0.989870000000     0.026800000000     0.0385435  
C208     C      0.399690000000     0.527010000000     0.485330000000     0.0339164  
C209     C      0.026680000000     0.899480000000     0.482160000000     0.0323766  
C210     C      0.487480000000     0.899630000000     0.021680000000     0.0330768  
C211     C      0.486600000000     0.866740000000     0.020990000000     0.0328797  
C212     C      0.028070000000     0.866500000000     0.483840000000     0.0322844  
C213     C      0.487060000000     0.649340000000     0.489220000000     0.0332987  
C214     C      0.028300000000     0.649590000000     0.026610000000     0.0314562  
C215     C      0.026970000000     0.616600000000     0.028220000000     0.0312049  
C216     C      0.487970000000     0.616450000000     0.488510000000     0.0335071  
C217     C      0.008150000000     0.568130000000     0.007420000000     0.426999   
C218     C      0.007780000000     0.947930000000     0.002840000000     0.426147   
C219     C      0.068370000000     0.507810000000     0.504590000000     0.433615   
C220     C      0.448090000000     0.508230000000     0.505670000000     0.434075   
C221     C      0.508230000000     0.947900000000     0.752640000000     0.43333    
C222     C      0.508420000000     0.568180000000     0.757750000000     0.434242   
C223     C      0.448190000000     0.007550000000     0.752060000000     0.432715   
C224     C      0.068460000000     0.008530000000     0.758330000000     0.432452   
C225     C      0.008070000000     0.697900000000     0.006730000000     0.425544   
C226     C      0.007860000000     0.818210000000     0.503700000000     0.426429   
C227     C      0.509100000000     0.757260000000     0.945230000000     0.431104   
C228     C      0.507070000000     0.758890000000     0.565220000000     0.431778   
C229     C      0.507790000000     0.818240000000     0.753220000000     0.434758   
C230     C      0.508830000000     0.697860000000     0.757220000000     0.434705   
C231     C      0.007120000000     0.756800000000     0.695200000000     0.424481   
C232     C      0.009470000000     0.759350000000     0.815250000000     0.42461    
C233     C      0.257040000000     0.008250000000     0.565220000000     0.424536   
C234     C      0.259620000000     0.007850000000     0.945150000000     0.423754   
C235     C      0.198120000000     0.507740000000     0.504140000000     0.435165   
C236     C      0.318500000000     0.508360000000     0.506220000000     0.435844   
C237     C      0.260760000000     0.008170000000     0.815180000000     0.424464   
C238     C      0.255900000000     0.007920000000     0.695190000000     0.424415   
C239     C      0.318500000000     0.007140000000     0.752240000000     0.426629   
C240     C      0.198150000000     0.008960000000     0.758140000000     0.426537   
C241     C      0.260820000000     0.535760000000     0.896630000000     0.0314116  
C242     C      0.260730000000     0.980070000000     0.896510000000     0.0360927  
C243     C      0.261120000000     0.980240000000     0.863720000000     0.0360085  
C244     C      0.261270000000     0.535930000000     0.863840000000     0.0313324  
C245     C      0.256040000000     0.536020000000     0.613870000000     0.0312488  
C246     C      0.255750000000     0.980330000000     0.613740000000     0.0357726  
C247     C      0.255310000000     0.980170000000     0.646530000000     0.0359794  
C248     C      0.255640000000     0.535860000000     0.646660000000     0.0311511  
C249     C      0.481770000000     0.759390000000     0.896550000000     0.0313936  
C250     C      0.037400000000     0.756760000000     0.896730000000     0.0305164  
C251     C      0.037560000000     0.757650000000     0.863870000000     0.0303841  
C252     C      0.481910000000     0.760070000000     0.863840000000     0.0312968  
C253     C      0.478960000000     0.756680000000     0.613760000000     0.0314434  
C254     C      0.034580000000     0.759680000000     0.613860000000     0.0301382  
C255     C      0.034570000000     0.758810000000     0.646560000000     0.0300518  
C256     C      0.478930000000     0.756030000000     0.646620000000     0.0312747  
C257     C      0.116750000000     0.529800000000     0.740590000000     0.033792   
C258     C      0.116830000000     0.989720000000     0.779220000000     0.0386378  
C259     C      0.149840000000     0.988530000000     0.777730000000     0.0380604  
C260     C      0.149660000000     0.530900000000     0.741600000000     0.03327    
C261     C      0.399820000000     0.526370000000     0.731170000000     0.0331956  
C262     C      0.399890000000     0.986280000000     0.769790000000     0.0392537  
C263     C      0.366990000000     0.985180000000     0.768780000000     0.037786   
C264     C      0.366810000000     0.527560000000     0.732660000000     0.0336363  
C265     C      0.487200000000     0.899680000000     0.770810000000     0.0341463  
C266     C      0.027170000000     0.899450000000     0.732070000000     0.0327068  
C267     C      0.028370000000     0.866470000000     0.733680000000     0.0325366  
C268     C      0.486110000000     0.866780000000     0.769950000000     0.0335162  
C269     C      0.029300000000     0.616430000000     0.739450000000     0.0331348  
C270     C      0.489590000000     0.616620000000     0.778460000000     0.0332505  
C271     C      0.488380000000     0.649610000000     0.776880000000     0.0334717  
C272     C      0.030390000000     0.649320000000     0.740310000000     0.0320131  
C273     C      0.116840000000     0.987210000000     0.523130000000     0.0381675  
C274     C      0.116710000000     0.528030000000     0.985280000000     0.0361008  
C275     C      0.149660000000     0.529090000000     0.986370000000     0.0372845  
C276     C      0.149770000000     0.986070000000     0.521730000000     0.0379914  
C277     C      0.366760000000     0.528350000000     0.986720000000     0.0374364  
C278     C      0.366900000000     0.988660000000     0.525780000000     0.0383299  
C279     C      0.399860000000     0.989870000000     0.526800000000     0.0394145  
C280     C      0.399690000000     0.527010000000     0.985330000000     0.0370894  
C281     C      0.026680000000     0.899480000000     0.982160000000     0.0355804  
C282     C      0.487480000000     0.899630000000     0.521680000000     0.0339108  
C283     C      0.486600000000     0.866740000000     0.520990000000     0.0334456  
C284     C      0.028070000000     0.866500000000     0.983840000000     0.0360536  
C285     C      0.487060000000     0.649340000000     0.989220000000     0.0370147  
C286     C      0.028300000000     0.649590000000     0.526610000000     0.0320387  
C287     C      0.026970000000     0.616600000000     0.528220000000     0.0321336  
C288     C      0.487970000000     0.616450000000     0.988510000000     0.0367304  
C289     C      0.508150000000     0.068130000000     0.507420000000     0.433023   
C290     C      0.507780000000     0.447930000000     0.502840000000     0.433389   
C291     C      0.568370000000     0.007810000000     0.004590000000     0.427617   
C292     C      0.948090000000     0.008230000000     0.005670000000     0.426661   
C293     C      0.008230000000     0.447900000000     0.252630000000     0.433215   
C294     C      0.008420000000     0.068180000000     0.257760000000     0.432779   
C295     C      0.948190000000     0.507550000000     0.252060000000     0.433076   
C296     C      0.568460000000     0.508530000000     0.258330000000     0.433993   
C297     C      0.508070000000     0.197900000000     0.506730000000     0.434023   
C298     C      0.507860000000     0.318210000000     0.003700000000     0.433491   
C299     C      0.009100000000     0.257260000000     0.445230000000     0.423934   
C300     C      0.007070000000     0.258890000000     0.065220000000     0.423656   
C301     C      0.007790000000     0.318240000000     0.253220000000     0.426887   
C302     C      0.008830000000     0.197860000000     0.257220000000     0.427205   
C303     C      0.507120000000     0.256800000000     0.195200000000     0.432126   
C304     C      0.509470000000     0.259350000000     0.315250000000     0.432092   
C305     C      0.757040000000     0.508250000000     0.065220000000     0.431798   
C306     C      0.759620000000     0.507850000000     0.445150000000     0.432272   
C307     C      0.698120000000     0.007740000000     0.004140000000     0.426615   
C308     C      0.818510000000     0.008360000000     0.006220000000     0.427353   
C309     C      0.760760000000     0.508180000000     0.315180000000     0.432252   
C310     C      0.755900000000     0.507920000000     0.195190000000     0.432094   
C311     C      0.818500000000     0.507140000000     0.252240000000     0.434477   
C312     C      0.698150000000     0.508960000000     0.258140000000     0.434448   
C313     C      0.760830000000     0.035760000000     0.396630000000     0.0302802  
C314     C      0.760730000000     0.480070000000     0.396510000000     0.0312148  
C315     C      0.761120000000     0.480240000000     0.363720000000     0.0312637  
C316     C      0.761270000000     0.035930000000     0.363840000000     0.0301831  
C317     C      0.756040000000     0.036020000000     0.113870000000     0.030177   
C318     C      0.755750000000     0.480330000000     0.113740000000     0.0311079  
C319     C      0.755320000000     0.480170000000     0.146530000000     0.0312637  
C320     C      0.755640000000     0.035860000000     0.146660000000     0.0301405  
C321     C      0.981760000000     0.259390000000     0.396550000000     0.0357275  
C322     C      0.537400000000     0.256760000000     0.396730000000     0.0313368  
C323     C      0.537560000000     0.257650000000     0.363870000000     0.0312466  
C324     C      0.981910000000     0.260070000000     0.363840000000     0.0357581  
C325     C      0.978960000000     0.256680000000     0.113760000000     0.036023   
C326     C      0.534580000000     0.259680000000     0.113860000000     0.0310335  
C327     C      0.534570000000     0.258820000000     0.146560000000     0.0309406  
C328     C      0.978930000000     0.256030000000     0.146620000000     0.0359599  
C329     C      0.616750000000     0.029800000000     0.240590000000     0.0330904  
C330     C      0.616840000000     0.489720000000     0.279220000000     0.0331951  
C331     C      0.649840000000     0.488530000000     0.277720000000     0.0335651  
C332     C      0.649660000000     0.030910000000     0.241600000000     0.0319873  
C333     C      0.899820000000     0.026370000000     0.231170000000     0.0325718  
C334     C      0.899900000000     0.486280000000     0.269790000000     0.034105   
C335     C      0.866990000000     0.485180000000     0.268780000000     0.0333613  
C336     C      0.866810000000     0.027560000000     0.232660000000     0.0325637  
C337     C      0.987190000000     0.399680000000     0.270810000000     0.0391365  
C338     C      0.527180000000     0.399450000000     0.232070000000     0.0331768  
C339     C      0.528370000000     0.366470000000     0.233680000000     0.0335326  
C340     C      0.986110000000     0.366780000000     0.269950000000     0.0378973  
C341     C      0.529300000000     0.116430000000     0.239450000000     0.0338388  
C342     C      0.989590000000     0.116630000000     0.278460000000     0.0385303  
C343     C      0.988380000000     0.149610000000     0.276880000000     0.0379524  
C344     C      0.530390000000     0.149320000000     0.240310000000     0.0331438  
C345     C      0.616840000000     0.487210000000     0.023130000000     0.0319687  
C346     C      0.616700000000     0.028030000000     0.485280000000     0.0321156  
C347     C      0.649660000000     0.029090000000     0.486370000000     0.0323464  
C348     C      0.649770000000     0.486070000000     0.021730000000     0.0328561  
C349     C      0.866770000000     0.028350000000     0.486720000000     0.032648   
C350     C      0.866910000000     0.488660000000     0.025780000000     0.0333689  
C351     C      0.899860000000     0.489870000000     0.026800000000     0.0334772  
C352     C      0.899690000000     0.027010000000     0.485330000000     0.0333626  
C353     C      0.526680000000     0.399480000000     0.482160000000     0.033007   
C354     C      0.987480000000     0.399630000000     0.021680000000     0.0382297  
C355     C      0.986600000000     0.366740000000     0.021000000000     0.0371394  
C356     C      0.528070000000     0.366500000000     0.483840000000     0.0332768  
C357     C      0.987060000000     0.149340000000     0.489220000000     0.0378054  
C358     C      0.528300000000     0.149590000000     0.026610000000     0.032619   
C359     C      0.526970000000     0.116600000000     0.028220000000     0.0319974  
C360     C      0.987970000000     0.116450000000     0.488510000000     0.0388488  
C361     C      0.508150000000     0.068130000000     0.007420000000     0.427512   
C362     C      0.507780000000     0.447930000000     0.002840000000     0.427957   
C363     C      0.568370000000     0.007810000000     0.504590000000     0.433091   
C364     C      0.948090000000     0.008230000000     0.505670000000     0.43213    
C365     C      0.008230000000     0.447900000000     0.752630000000     0.433206   
C366     C      0.008420000000     0.068180000000     0.757750000000     0.432783   
C367     C      0.948190000000     0.507550000000     0.752060000000     0.432809   
C368     C      0.568460000000     0.508530000000     0.758330000000     0.43399    
C369     C      0.508070000000     0.197900000000     0.006730000000     0.433334   
C370     C      0.507860000000     0.318210000000     0.503700000000     0.43418    
C371     C      0.009100000000     0.257260000000     0.945230000000     0.423349   
C372     C      0.007070000000     0.258890000000     0.565220000000     0.423991   
C373     C      0.007790000000     0.318240000000     0.753220000000     0.426899   
C374     C      0.008830000000     0.197860000000     0.757220000000     0.42722    
C375     C      0.507120000000     0.256800000000     0.695200000000     0.432126   
C376     C      0.509470000000     0.259350000000     0.815250000000     0.432138   
C377     C      0.757040000000     0.508250000000     0.565220000000     0.432399   
C378     C      0.759620000000     0.507850000000     0.945150000000     0.431424   
C379     C      0.698120000000     0.007740000000     0.504140000000     0.427289   
C380     C      0.818510000000     0.008360000000     0.506220000000     0.428009   
C381     C      0.760760000000     0.508180000000     0.815180000000     0.432296   
C382     C      0.755900000000     0.507920000000     0.695190000000     0.432094   
C383     C      0.818500000000     0.507140000000     0.752240000000     0.434483   
C384     C      0.698150000000     0.508960000000     0.758140000000     0.434454   
C385     C      0.760830000000     0.035760000000     0.896630000000     0.0304562  
C386     C      0.760730000000     0.480070000000     0.896510000000     0.031411   
C387     C      0.761120000000     0.480240000000     0.863720000000     0.0314374  
C388     C      0.761270000000     0.035930000000     0.863840000000     0.030339   
C389     C      0.756040000000     0.036020000000     0.613870000000     0.0302488  
C390     C      0.755750000000     0.480330000000     0.613750000000     0.0311438  
C391     C      0.755320000000     0.480170000000     0.646530000000     0.0312959  
C392     C      0.755640000000     0.035860000000     0.646660000000     0.0301815  
C393     C      0.981760000000     0.259390000000     0.896540000000     0.035861   
C394     C      0.537400000000     0.256760000000     0.896730000000     0.0315292  
C395     C      0.537560000000     0.257650000000     0.863870000000     0.0314106  
C396     C      0.981910000000     0.260070000000     0.863840000000     0.0359166  
C397     C      0.978960000000     0.256680000000     0.613760000000     0.0360901  
C398     C      0.534580000000     0.259680000000     0.613860000000     0.0310943  
C399     C      0.534570000000     0.258820000000     0.646560000000     0.0309769  
C400     C      0.978930000000     0.256030000000     0.646620000000     0.036005   
C401     C      0.616750000000     0.029800000000     0.740600000000     0.0332033  
C402     C      0.616840000000     0.489720000000     0.779220000000     0.0332817  
C403     C      0.649840000000     0.488530000000     0.777730000000     0.0335322  
C404     C      0.649660000000     0.030910000000     0.741600000000     0.0319717  
C405     C      0.899820000000     0.026370000000     0.731170000000     0.0325802  
C406     C      0.899900000000     0.486280000000     0.769790000000     0.03413    
C407     C      0.866990000000     0.485180000000     0.768780000000     0.0334011  
C408     C      0.866810000000     0.027560000000     0.732660000000     0.0325961  
C409     C      0.987190000000     0.399680000000     0.770810000000     0.0391628  
C410     C      0.527180000000     0.399450000000     0.732070000000     0.0331903  
C411     C      0.528370000000     0.366470000000     0.733680000000     0.0335761  
C412     C      0.986110000000     0.366780000000     0.769950000000     0.0379502  
C413     C      0.529300000000     0.116430000000     0.739450000000     0.0338515  
C414     C      0.989590000000     0.116630000000     0.778460000000     0.0385766  
C415     C      0.988380000000     0.149610000000     0.776880000000     0.0379855  
C416     C      0.530390000000     0.149320000000     0.740310000000     0.033184   
C417     C      0.616840000000     0.487210000000     0.523130000000     0.0329068  
C418     C      0.616700000000     0.028030000000     0.985280000000     0.0353697  
C419     C      0.649660000000     0.029090000000     0.986370000000     0.0360921  
C420     C      0.649770000000     0.486070000000     0.521730000000     0.0334322  
C421     C      0.866770000000     0.028340000000     0.986720000000     0.0364675  
C422     C      0.866900000000     0.488660000000     0.525780000000     0.0339531  
C423     C      0.899860000000     0.489870000000     0.526800000000     0.0342983  
C424     C      0.899690000000     0.027010000000     0.985330000000     0.0364565  
C425     C      0.526680000000     0.399480000000     0.982160000000     0.0362262  
C426     C      0.987480000000     0.399630000000     0.521680000000     0.0390739  
C427     C      0.986600000000     0.366740000000     0.521000000000     0.0377131  
C428     C      0.528070000000     0.366500000000     0.983840000000     0.0370577  
C429     C      0.987060000000     0.149340000000     0.989210000000     0.0414224  
C430     C      0.528300000000     0.149590000000     0.526610000000     0.0332246  
C431     C      0.526970000000     0.116600000000     0.528220000000     0.0328791  
C432     C      0.987970000000     0.116450000000     0.988510000000     0.0420911  
C433     C      0.508150000000     0.568130000000     0.507420000000     0.433489   
C434     C      0.507780000000     0.947930000000     0.502840000000     0.432529   
C435     C      0.568370000000     0.507810000000     0.004590000000     0.428496   
C436     C      0.948080000000     0.508230000000     0.005670000000     0.42748    
C437     C      0.008230000000     0.947900000000     0.252630000000     0.432338   
C438     C      0.008420000000     0.568180000000     0.257760000000     0.433233   
C439     C      0.948190000000     0.007550000000     0.252060000000     0.432071   
C440     C      0.568460000000     0.008530000000     0.258330000000     0.43286    
C441     C      0.508070000000     0.697900000000     0.506730000000     0.434016   
C442     C      0.507860000000     0.818210000000     0.003700000000     0.433551   
C443     C      0.009100000000     0.757260000000     0.445230000000     0.423976   
C444     C      0.007070000000     0.758890000000     0.065220000000     0.423696   
C445     C      0.007790000000     0.818240000000     0.253220000000     0.426977   
C446     C      0.008830000000     0.697860000000     0.257220000000     0.426899   
C447     C      0.507120000000     0.756800000000     0.195200000000     0.432135   
C448     C      0.509470000000     0.759350000000     0.315250000000     0.432369   
C449     C      0.757040000000     0.008250000000     0.065220000000     0.424271   
C450     C      0.759630000000     0.007850000000     0.445150000000     0.424614   
C451     C      0.698120000000     0.507740000000     0.004140000000     0.43445    
C452     C      0.818500000000     0.508360000000     0.006220000000     0.435272   
C453     C      0.760760000000     0.008170000000     0.315180000000     0.424457   
C454     C      0.755900000000     0.007920000000     0.195190000000     0.424451   
C455     C      0.818500000000     0.007140000000     0.252240000000     0.426738   
C456     C      0.698150000000     0.008960000000     0.258140000000     0.426507   
C457     C      0.760820000000     0.535760000000     0.396630000000     0.0312712  
C458     C      0.760730000000     0.980070000000     0.396510000000     0.0359346  
C459     C      0.761120000000     0.980240000000     0.363720000000     0.0358656  
C460     C      0.761270000000     0.535930000000     0.363840000000     0.0312453  
C461     C      0.756040000000     0.536020000000     0.113870000000     0.0312161  
C462     C      0.755750000000     0.980330000000     0.113740000000     0.0357303  
C463     C      0.755310000000     0.980170000000     0.146530000000     0.0359633  
C464     C      0.755640000000     0.535860000000     0.146660000000     0.031144   
C465     C      0.981770000000     0.759390000000     0.396550000000     0.0358555  
C466     C      0.537400000000     0.756760000000     0.396730000000     0.0313754  
C467     C      0.537560000000     0.757650000000     0.363870000000     0.0312905  
C468     C      0.981910000000     0.760070000000     0.363840000000     0.035733   
C469     C      0.978960000000     0.756680000000     0.113760000000     0.0360432  
C470     C      0.534580000000     0.759690000000     0.113860000000     0.0310609  
C471     C      0.534570000000     0.758810000000     0.146560000000     0.0309877  
C472     C      0.978930000000     0.756030000000     0.146620000000     0.0359819  
C473     C      0.616750000000     0.529810000000     0.240590000000     0.0337747  
C474     C      0.616830000000     0.989720000000     0.279220000000     0.0386531  
C475     C      0.649840000000     0.988530000000     0.277730000000     0.0380377  
C476     C      0.649660000000     0.530900000000     0.241600000000     0.0332962  
C477     C      0.899820000000     0.526370000000     0.231170000000     0.0334378  
C478     C      0.899890000000     0.986280000000     0.269790000000     0.039428   
C479     C      0.866990000000     0.985180000000     0.268780000000     0.0379335  
C480     C      0.866810000000     0.527560000000     0.232660000000     0.0338165  
C481     C      0.987200000000     0.899680000000     0.270810000000     0.0394269  
C482     C      0.527180000000     0.899450000000     0.232070000000     0.0333975  
C483     C      0.528370000000     0.866470000000     0.233680000000     0.0338041  
C484     C      0.986110000000     0.866780000000     0.269950000000     0.0380323  
C485     C      0.529300000000     0.616430000000     0.239450000000     0.0338751  
C486     C      0.989590000000     0.616620000000     0.278460000000     0.0385262  
C487     C      0.988390000000     0.649610000000     0.276880000000     0.0380512  
C488     C      0.530380000000     0.649320000000     0.240310000000     0.0332311  
C489     C      0.616840000000     0.987210000000     0.023130000000     0.037335   
C490     C      0.616710000000     0.528030000000     0.485280000000     0.0328993  
C491     C      0.649660000000     0.529090000000     0.486370000000     0.0335572  
C492     C      0.649770000000     0.986070000000     0.021730000000     0.0373608  
C493     C      0.866760000000     0.528350000000     0.486720000000     0.0338963  
C494     C      0.866910000000     0.988660000000     0.025780000000     0.0379262  
C495     C      0.899860000000     0.989870000000     0.026800000000     0.0387947  
C496     C      0.899690000000     0.527010000000     0.485330000000     0.0341768  
C497     C      0.526680000000     0.899480000000     0.482160000000     0.0332014  
C498     C      0.987480000000     0.899630000000     0.021680000000     0.0384464  
C499     C      0.986600000000     0.866740000000     0.021000000000     0.0373189  
C500     C      0.528070000000     0.866500000000     0.483840000000     0.0335099  
C501     C      0.987060000000     0.649340000000     0.489220000000     0.0378106  
C502     C      0.528300000000     0.649590000000     0.026610000000     0.0326386  
C503     C      0.526970000000     0.616600000000     0.028220000000     0.0320815  
C504     C      0.987970000000     0.616450000000     0.488510000000     0.0389157  
C505     C      0.508140000000     0.568130000000     0.007420000000     0.427958   
C506     C      0.507780000000     0.947930000000     0.002840000000     0.427116   
C507     C      0.568370000000     0.507810000000     0.504590000000     0.433986   
C508     C      0.948080000000     0.508230000000     0.505670000000     0.432931   
C509     C      0.008230000000     0.947900000000     0.752640000000     0.432339   
C510     C      0.008420000000     0.568180000000     0.757750000000     0.433237   
C511     C      0.948190000000     0.007550000000     0.752060000000     0.431805   
C512     C      0.568460000000     0.008530000000     0.758330000000     0.43286    
C513     C      0.508070000000     0.697900000000     0.006730000000     0.433333   
C514     C      0.507860000000     0.818210000000     0.503700000000     0.434231   
C515     C      0.009100000000     0.757260000000     0.945230000000     0.423392   
C516     C      0.007070000000     0.758890000000     0.565220000000     0.424031   
C517     C      0.007790000000     0.818240000000     0.753220000000     0.42699    
C518     C      0.008830000000     0.697860000000     0.757220000000     0.426913   
C519     C      0.507120000000     0.756800000000     0.695200000000     0.432135   
C520     C      0.509470000000     0.759350000000     0.815250000000     0.432415   
C521     C      0.757040000000     0.008250000000     0.565220000000     0.424583   
C522     C      0.759630000000     0.007850000000     0.945150000000     0.424053   
C523     C      0.698120000000     0.507740000000     0.504140000000     0.435158   
C524     C      0.818500000000     0.508360000000     0.506220000000     0.435968   
C525     C      0.760760000000     0.008170000000     0.815180000000     0.424507   
C526     C      0.755900000000     0.007920000000     0.695190000000     0.424449   
C527     C      0.818500000000     0.007140000000     0.752240000000     0.426746   
C528     C      0.698150000000     0.008960000000     0.758140000000     0.426517   
C529     C      0.760820000000     0.535760000000     0.896630000000     0.0314356  
C530     C      0.760730000000     0.980070000000     0.896510000000     0.0361303  
C531     C      0.761120000000     0.980240000000     0.863720000000     0.0360245  
C532     C      0.761270000000     0.535930000000     0.863840000000     0.0314053  
C533     C      0.756040000000     0.536020000000     0.613870000000     0.0312976  
C534     C      0.755750000000     0.980330000000     0.613740000000     0.0357926  
C535     C      0.755310000000     0.980170000000     0.646530000000     0.035998   
C536     C      0.755640000000     0.535860000000     0.646660000000     0.0311835  
C537     C      0.981770000000     0.759390000000     0.896540000000     0.0359889  
C538     C      0.537400000000     0.756760000000     0.896730000000     0.0315679  
C539     C      0.537560000000     0.757650000000     0.863870000000     0.0314538  
C540     C      0.981910000000     0.760070000000     0.863840000000     0.0358912  
C541     C      0.978960000000     0.756680000000     0.613760000000     0.0361118  
C542     C      0.534580000000     0.759680000000     0.613860000000     0.0311337  
C543     C      0.534570000000     0.758810000000     0.646560000000     0.031019   
C544     C      0.978930000000     0.756030000000     0.646620000000     0.0360234  
C545     C      0.616750000000     0.529810000000     0.740590000000     0.0338068  
C546     C      0.616830000000     0.989720000000     0.779220000000     0.0387002  
C547     C      0.649840000000     0.988530000000     0.777730000000     0.0380702  
C548     C      0.649660000000     0.530900000000     0.741600000000     0.0333229  
C549     C      0.899820000000     0.526370000000     0.731170000000     0.0334466  
C550     C      0.899890000000     0.986280000000     0.769790000000     0.0394499  
C551     C      0.866990000000     0.985180000000     0.768780000000     0.0379705  
C552     C      0.866810000000     0.527560000000     0.732660000000     0.0338489  
C553     C      0.987200000000     0.899680000000     0.770810000000     0.0394427  
C554     C      0.527180000000     0.899450000000     0.732070000000     0.0334199  
C555     C      0.528370000000     0.866470000000     0.733680000000     0.0338435  
C556     C      0.986110000000     0.866780000000     0.769950000000     0.0380896  
C557     C      0.529300000000     0.616430000000     0.739450000000     0.0339061  
C558     C      0.989590000000     0.616620000000     0.778460000000     0.0385723  
C559     C      0.988390000000     0.649610000000     0.776880000000     0.0380841  
C560     C      0.530380000000     0.649320000000     0.740310000000     0.0332619  
C561     C      0.616840000000     0.987210000000     0.523130000000     0.0382788  
C562     C      0.616710000000     0.528030000000     0.985280000000     0.0361576  
C563     C      0.649660000000     0.529090000000     0.986370000000     0.0373099  
C564     C      0.649770000000     0.986070000000     0.521730000000     0.0379649  
C565     C      0.866760000000     0.528350000000     0.986720000000     0.0376354  
C566     C      0.866910000000     0.988660000000     0.525780000000     0.0384829  
C567     C      0.899860000000     0.989870000000     0.526800000000     0.039641   
C568     C      0.899690000000     0.527010000000     0.985330000000     0.0373447  
C569     C      0.526680000000     0.899480000000     0.982160000000     0.0364077  
C570     C      0.987480000000     0.899630000000     0.521680000000     0.0392805  
C571     C      0.986600000000     0.866740000000     0.521000000000     0.037912   
C572     C      0.528070000000     0.866500000000     0.983840000000     0.0372839  
C573     C      0.987060000000     0.649340000000     0.989210000000     0.0414082  
C574     C      0.528300000000     0.649590000000     0.526610000000     0.0332192  
C575     C      0.526970000000     0.616600000000     0.528220000000     0.0330253  
C576     C      0.987970000000     0.616450000000     0.988510000000     0.0421717  
H1       H      0.260730000000     0.058380000000     0.408560000000     0.0392719  
H2       H      0.260520000000     0.457410000000     0.408350000000     0.038959   
H3       H      0.261180000000     0.457620000000     0.351780000000     0.0392513  
H4       H      0.261420000000     0.058590000000     0.352000000000     0.0389482  
H5       H      0.256320000000     0.058690000000     0.102020000000     0.0387228  
H6       H      0.255780000000     0.457720000000     0.101810000000     0.0391365  
H7       H      0.255090000000     0.457500000000     0.158370000000     0.0388638  
H8       H      0.255650000000     0.058470000000     0.158590000000     0.0391947  
H9       H      0.459060000000     0.260180000000     0.408300000000     0.0390689  
H10      H      0.059940000000     0.255480000000     0.408750000000     0.0391245  
H11      H      0.060160000000     0.256870000000     0.351940000000     0.0390028  
H12      H      0.459270000000     0.261350000000     0.352000000000     0.0391951  
H13      H      0.456380000000     0.255730000000     0.101790000000     0.039006   
H14      H      0.057230000000     0.261110000000     0.102050000000     0.0388296  
H15      H      0.057240000000     0.259750000000     0.158370000000     0.039147   
H16      H      0.456370000000     0.254640000000     0.158590000000     0.0389917  
H17      H      0.104400000000     0.046070000000     0.225200000000     0.0341714  
H18      H      0.104530000000     0.473300000000     0.294460000000     0.0353027  
H19      H      0.162260000000     0.471590000000     0.292310000000     0.0357265  
H20      H      0.161830000000     0.047690000000     0.226630000000     0.035739   
H21      H      0.412130000000     0.042790000000     0.215930000000     0.0353493  
H22      H      0.412250000000     0.470020000000     0.285190000000     0.0346488  
H23      H      0.354810000000     0.468400000000     0.283750000000     0.0359802  
H24      H      0.354400000000     0.044510000000     0.218080000000     0.0356752  
H25      H      0.470950000000     0.412080000000     0.286190000000     0.0348289  
H26      H      0.043540000000     0.411700000000     0.216710000000     0.0351859  
H27      H      0.045250000000     0.354000000000     0.219050000000     0.035547   
H28      H      0.469340000000     0.354660000000     0.284990000000     0.0359149  
H29      H      0.045450000000     0.104040000000     0.223950000000     0.0344206  
H30      H      0.473340000000     0.104370000000     0.293930000000     0.0352183  
H31      H      0.471620000000     0.162070000000     0.291630000000     0.035642   
H32      H      0.047040000000     0.161450000000     0.225160000000     0.0357744  
H33      H      0.104590000000     0.470580000000     0.038210000000     0.0360855  
H34      H      0.104360000000     0.044710000000     0.470340000000     0.0362974  
H35      H      0.161910000000     0.046220000000     0.471870000000     0.0359603  
H36      H      0.162100000000     0.468950000000     0.036190000000     0.0357455  
H37      H      0.354370000000     0.044090000000     0.470840000000     0.0349614  
H38      H      0.354620000000     0.472900000000     0.041720000000     0.0350549  
H39      H      0.412270000000     0.474680000000     0.043190000000     0.0344789  
H40      H      0.411970000000     0.042130000000     0.468780000000     0.0339517  
H41      H      0.042660000000     0.411730000000     0.466420000000     0.035648   
H42      H      0.471460000000     0.411980000000     0.037320000000     0.035513   
H43      H      0.470200000000     0.354600000000     0.036420000000     0.0363136  
H44      H      0.044670000000     0.354080000000     0.468870000000     0.0359779  
H45      H      0.470720000000     0.161460000000     0.473710000000     0.036398   
H46      H      0.044780000000     0.162010000000     0.041710000000     0.0356816  
H47      H      0.042890000000     0.104350000000     0.044020000000     0.0353149  
H48      H      0.472020000000     0.104130000000     0.472780000000     0.0354874  
H49      H      0.260730000000     0.058380000000     0.908560000000     0.0397488  
H50      H      0.260520000000     0.457410000000     0.908350000000     0.0395137  
H51      H      0.261180000000     0.457620000000     0.851780000000     0.0394566  
H52      H      0.261420000000     0.058590000000     0.852000000000     0.0391258  
H53      H      0.256320000000     0.058690000000     0.602020000000     0.0389347  
H54      H      0.255780000000     0.457720000000     0.601810000000     0.0393066  
H55      H      0.255090000000     0.457500000000     0.658370000000     0.0389398  
H56      H      0.255650000000     0.058470000000     0.658590000000     0.039291   
H57      H      0.459060000000     0.260180000000     0.908310000000     0.0395922  
H58      H      0.059940000000     0.255480000000     0.908750000000     0.0396429  
H59      H      0.060160000000     0.256870000000     0.851940000000     0.0391964  
H60      H      0.459270000000     0.261350000000     0.852010000000     0.0393792  
H61      H      0.456380000000     0.255730000000     0.601790000000     0.039196   
H62      H      0.057230000000     0.261110000000     0.602050000000     0.0390148  
H63      H      0.057240000000     0.259750000000     0.658370000000     0.0392336  
H64      H      0.456370000000     0.254640000000     0.658590000000     0.0390802  
H65      H      0.104400000000     0.046070000000     0.725200000000     0.0342071  
H66      H      0.104530000000     0.473300000000     0.794460000000     0.0354034  
H67      H      0.162260000000     0.471590000000     0.792310000000     0.0358422  
H68      H      0.161830000000     0.047690000000     0.726630000000     0.0357885  
H69      H      0.412130000000     0.042790000000     0.715930000000     0.0354006  
H70      H      0.412250000000     0.470020000000     0.785190000000     0.0347432  
H71      H      0.354810000000     0.468400000000     0.783750000000     0.0360851  
H72      H      0.354400000000     0.044510000000     0.718080000000     0.0357291  
H73      H      0.470950000000     0.412080000000     0.786190000000     0.0349215  
H74      H      0.043540000000     0.411700000000     0.716710000000     0.0352194  
H75      H      0.045250000000     0.354000000000     0.719050000000     0.0355925  
H76      H      0.469340000000     0.354660000000     0.784990000000     0.0360341  
H77      H      0.045450000000     0.104040000000     0.723960000000     0.0344627  
H78      H      0.473340000000     0.104370000000     0.793930000000     0.035301   
H79      H      0.471620000000     0.162070000000     0.791630000000     0.03574    
H80      H      0.047040000000     0.161450000000     0.725160000000     0.0358222  
H81      H      0.104590000000     0.470580000000     0.538210000000     0.036237   
H82      H      0.104360000000     0.044710000000     0.970340000000     0.0365323  
H83      H      0.161910000000     0.046220000000     0.971870000000     0.0363539  
H84      H      0.162100000000     0.468950000000     0.536190000000     0.0359727  
H85      H      0.354370000000     0.044090000000     0.970840000000     0.0352685  
H86      H      0.354620000000     0.472900000000     0.541720000000     0.0352125  
H87      H      0.412270000000     0.474680000000     0.543190000000     0.0345071  
H88      H      0.411970000000     0.042120000000     0.968780000000     0.0340321  
H89      H      0.042660000000     0.411730000000     0.966420000000     0.0358787  
H90      H      0.471460000000     0.411980000000     0.537320000000     0.0355795  
H91      H      0.470200000000     0.354600000000     0.536420000000     0.0364972  
H92      H      0.044670000000     0.354080000000     0.968870000000     0.0363594  
H93      H      0.470720000000     0.161460000000     0.973720000000     0.0367667  
H94      H      0.044780000000     0.162010000000     0.541710000000     0.0358992  
H95      H      0.042890000000     0.104350000000     0.544020000000     0.0354483  
H96      H      0.472020000000     0.104130000000     0.972780000000     0.0355832  
H97      H      0.260720000000     0.558380000000     0.408560000000     0.0392287  
H98      H      0.260520000000     0.957410000000     0.408350000000     0.0387118  
H99      H      0.261180000000     0.957620000000     0.351780000000     0.038955   
H100     H      0.261420000000     0.558590000000     0.352000000000     0.0389321  
H101     H      0.256320000000     0.558690000000     0.102020000000     0.0387087  
H102     H      0.255780000000     0.957720000000     0.101810000000     0.038825   
H103     H      0.255090000000     0.957500000000     0.158370000000     0.0386269  
H104     H      0.255650000000     0.558470000000     0.158590000000     0.0391536  
H105     H      0.459060000000     0.760180000000     0.408300000000     0.0390908  
H106     H      0.059940000000     0.755480000000     0.408750000000     0.0391677  
H107     H      0.060160000000     0.756870000000     0.351940000000     0.0390473  
H108     H      0.459270000000     0.761350000000     0.352000000000     0.0392485  
H109     H      0.456380000000     0.755730000000     0.101790000000     0.0390491  
H110     H      0.057230000000     0.761110000000     0.102050000000     0.0388825  
H111     H      0.057240000000     0.759750000000     0.158370000000     0.039192   
H112     H      0.456380000000     0.754640000000     0.158590000000     0.0390484  
H113     H      0.104400000000     0.546060000000     0.225200000000     0.0344111  
H114     H      0.104530000000     0.973300000000     0.294460000000     0.0357848  
H115     H      0.162260000000     0.971590000000     0.292310000000     0.035918   
H116     H      0.161830000000     0.547690000000     0.226630000000     0.0357992  
H117     H      0.412130000000     0.542790000000     0.215930000000     0.0355881  
H118     H      0.412250000000     0.970020000000     0.285190000000     0.0350709  
H119     H      0.354810000000     0.968400000000     0.283750000000     0.0361175  
H120     H      0.354400000000     0.544510000000     0.218080000000     0.0357827  
H121     H      0.470950000000     0.912080000000     0.286190000000     0.0354721  
H122     H      0.043540000000     0.911700000000     0.216710000000     0.0359279  
H123     H      0.045250000000     0.854000000000     0.219050000000     0.0357338  
H124     H      0.469350000000     0.854660000000     0.284990000000     0.0361088  
H125     H      0.045450000000     0.604040000000     0.223950000000     0.0345164  
H126     H      0.473340000000     0.604380000000     0.293930000000     0.0353874  
H127     H      0.471620000000     0.662070000000     0.291630000000     0.0356905  
H128     H      0.047040000000     0.661450000000     0.225160000000     0.035823   
H129     H      0.104590000000     0.970580000000     0.038210000000     0.0365511  
H130     H      0.104360000000     0.544710000000     0.470340000000     0.0365358  
H131     H      0.161910000000     0.546220000000     0.471870000000     0.0360594  
H132     H      0.162100000000     0.968950000000     0.036190000000     0.035889   
H133     H      0.354370000000     0.544090000000     0.470840000000     0.0350913  
H134     H      0.354620000000     0.972900000000     0.041720000000     0.0352608  
H135     H      0.412270000000     0.974680000000     0.043190000000     0.0349691  
H136     H      0.411970000000     0.542120000000     0.468780000000     0.0342053  
H137     H      0.042660000000     0.911730000000     0.466420000000     0.0363799  
H138     H      0.471460000000     0.911980000000     0.037320000000     0.036136   
H139     H      0.470210000000     0.854600000000     0.036420000000     0.0364993  
H140     H      0.044670000000     0.854080000000     0.468870000000     0.0361624  
H141     H      0.470720000000     0.661460000000     0.473710000000     0.0364311  
H142     H      0.044780000000     0.662010000000     0.041710000000     0.0357272  
H143     H      0.042890000000     0.604350000000     0.044020000000     0.0354879  
H144     H      0.472020000000     0.604130000000     0.472780000000     0.035607   
H145     H      0.260720000000     0.558380000000     0.908560000000     0.0397009  
H146     H      0.260520000000     0.957410000000     0.908350000000     0.0392762  
H147     H      0.261180000000     0.957620000000     0.851780000000     0.0391592  
H148     H      0.261420000000     0.558590000000     0.852000000000     0.0391107  
H149     H      0.256320000000     0.558690000000     0.602020000000     0.0389217  
H150     H      0.255780000000     0.957720000000     0.601810000000     0.0389782  
H151     H      0.255090000000     0.957500000000     0.658370000000     0.0387042  
H152     H      0.255650000000     0.558470000000     0.658590000000     0.0392493  
H153     H      0.459060000000     0.760180000000     0.908310000000     0.0396135  
H154     H      0.059940000000     0.755480000000     0.908750000000     0.0396855  
H155     H      0.060160000000     0.756870000000     0.851940000000     0.0392407  
H156     H      0.459270000000     0.761350000000     0.852000000000     0.039441   
H157     H      0.456380000000     0.755730000000     0.601790000000     0.0392387  
H158     H      0.057230000000     0.761110000000     0.602050000000     0.0390671  
H159     H      0.057240000000     0.759750000000     0.658370000000     0.039278   
H160     H      0.456380000000     0.754640000000     0.658590000000     0.039137   
H161     H      0.104400000000     0.546060000000     0.725190000000     0.0344432  
H162     H      0.104530000000     0.973300000000     0.794460000000     0.035884   
H163     H      0.162260000000     0.971590000000     0.792310000000     0.0360324  
H164     H      0.161830000000     0.547690000000     0.726630000000     0.0358503  
H165     H      0.412130000000     0.542790000000     0.715930000000     0.0356396  
H166     H      0.412250000000     0.970020000000     0.785190000000     0.0351644  
H167     H      0.354810000000     0.968400000000     0.783750000000     0.0362215  
H168     H      0.354400000000     0.544510000000     0.718080000000     0.035837   
H169     H      0.470950000000     0.912080000000     0.786190000000     0.0355654  
H170     H      0.043540000000     0.911700000000     0.716710000000     0.0359609  
H171     H      0.045250000000     0.854000000000     0.719050000000     0.0357811  
H172     H      0.469350000000     0.854660000000     0.784990000000     0.036226   
H173     H      0.045450000000     0.604040000000     0.723960000000     0.034558   
H174     H      0.473340000000     0.604380000000     0.793930000000     0.0354545  
H175     H      0.471620000000     0.662070000000     0.791630000000     0.0357891  
H176     H      0.047040000000     0.661450000000     0.725160000000     0.0358699  
H177     H      0.104590000000     0.970580000000     0.538210000000     0.0367176  
H178     H      0.104360000000     0.544710000000     0.970340000000     0.0367566  
H179     H      0.161910000000     0.546220000000     0.971870000000     0.0364582  
H180     H      0.162100000000     0.968950000000     0.536190000000     0.0361089  
H181     H      0.354370000000     0.544090000000     0.970840000000     0.0353895  
H182     H      0.354620000000     0.972900000000     0.541720000000     0.0354322  
H183     H      0.412270000000     0.974680000000     0.543190000000     0.0349905  
H184     H      0.411970000000     0.542120000000     0.968780000000     0.0342718  
H185     H      0.042660000000     0.911730000000     0.966420000000     0.0366071  
H186     H      0.471460000000     0.911980000000     0.537320000000     0.0362038  
H187     H      0.470210000000     0.854600000000     0.536420000000     0.0366829  
H188     H      0.044670000000     0.854080000000     0.968870000000     0.0365428  
H189     H      0.470720000000     0.661460000000     0.973720000000     0.036803   
H190     H      0.044780000000     0.662010000000     0.541710000000     0.0359442  
H191     H      0.042890000000     0.604350000000     0.544020000000     0.035621   
H192     H      0.472020000000     0.604130000000     0.972780000000     0.0356861  
H193     H      0.760720000000     0.058380000000     0.408560000000     0.0393176  
H194     H      0.760520000000     0.457410000000     0.408350000000     0.0389994  
H195     H      0.761180000000     0.457620000000     0.351780000000     0.0392989  
H196     H      0.761420000000     0.058590000000     0.352000000000     0.0389983  
H197     H      0.756320000000     0.058690000000     0.102020000000     0.0387735  
H198     H      0.755780000000     0.457720000000     0.101810000000     0.039181   
H199     H      0.755090000000     0.457500000000     0.158370000000     0.0389101  
H200     H      0.755650000000     0.058470000000     0.158590000000     0.0392412  
H201     H      0.959060000000     0.260180000000     0.408300000000     0.0387828  
H202     H      0.559940000000     0.255480000000     0.408750000000     0.0391047  
H203     H      0.560160000000     0.256860000000     0.351940000000     0.0389933  
H204     H      0.959270000000     0.261350000000     0.352000000000     0.038876   
H205     H      0.956380000000     0.255730000000     0.101790000000     0.0387746  
H206     H      0.557230000000     0.261110000000     0.102050000000     0.0387883  
H207     H      0.557240000000     0.259750000000     0.158370000000     0.0390855  
H208     H      0.956370000000     0.254640000000     0.158590000000     0.0387911  
H209     H      0.604400000000     0.046070000000     0.225200000000     0.0342925  
H210     H      0.604530000000     0.473300000000     0.294460000000     0.0355111  
H211     H      0.662260000000     0.471590000000     0.292310000000     0.0357572  
H212     H      0.661830000000     0.047690000000     0.226630000000     0.0357621  
H213     H      0.912130000000     0.042790000000     0.215930000000     0.0361282  
H214     H      0.912250000000     0.470020000000     0.285190000000     0.0352769  
H215     H      0.854810000000     0.468400000000     0.283750000000     0.0361488  
H216     H      0.854400000000     0.044510000000     0.218080000000     0.0358753  
H217     H      0.970950000000     0.412080000000     0.286190000000     0.0352812  
H218     H      0.543540000000     0.411700000000     0.216710000000     0.0354446  
H219     H      0.545250000000     0.354000000000     0.219060000000     0.0356399  
H220     H      0.969350000000     0.354660000000     0.284980000000     0.0360608  
H221     H      0.545450000000     0.104040000000     0.223950000000     0.0345887  
H222     H      0.973340000000     0.104370000000     0.293930000000     0.0356619  
H223     H      0.971620000000     0.162070000000     0.291630000000     0.0357992  
H224     H      0.547040000000     0.161450000000     0.225160000000     0.0358444  
H225     H      0.604590000000     0.470580000000     0.038210000000     0.0362419  
H226     H      0.604360000000     0.044710000000     0.470340000000     0.0364848  
H227     H      0.661910000000     0.046220000000     0.471870000000     0.0360129  
H228     H      0.662100000000     0.468950000000     0.036190000000     0.0357876  
H229     H      0.854370000000     0.044090000000     0.470840000000     0.0351247  
H230     H      0.854620000000     0.472900000000     0.041720000000     0.0352359  
H231     H      0.912270000000     0.474680000000     0.043190000000     0.0351369  
H232     H      0.911970000000     0.042130000000     0.468780000000     0.0346017  
H233     H      0.542660000000     0.411730000000     0.466420000000     0.0358899  
H234     H      0.971460000000     0.411980000000     0.037320000000     0.0359496  
H235     H      0.970210000000     0.354600000000     0.036420000000     0.0365402  
H236     H      0.544670000000     0.354080000000     0.468870000000     0.0361026  
H237     H      0.970720000000     0.161460000000     0.473710000000     0.0365369  
H238     H      0.544780000000     0.162010000000     0.041710000000     0.0357709  
H239     H      0.542890000000     0.104350000000     0.044020000000     0.035518   
H240     H      0.972020000000     0.104130000000     0.472780000000     0.0359148  
H241     H      0.760730000000     0.058380000000     0.908560000000     0.039788   
H242     H      0.760520000000     0.457410000000     0.908350000000     0.0395645  
H243     H      0.761180000000     0.457620000000     0.851780000000     0.039503   
H244     H      0.761420000000     0.058590000000     0.852000000000     0.0391765  
H245     H      0.756320000000     0.058690000000     0.602020000000     0.0389851  
H246     H      0.755780000000     0.457720000000     0.601810000000     0.0393397  
H247     H      0.755090000000     0.457500000000     0.658370000000     0.038987   
H248     H      0.755650000000     0.058470000000     0.658590000000     0.0393371  
H249     H      0.959060000000     0.260180000000     0.908300000000     0.0393142  
H250     H      0.559940000000     0.255480000000     0.908750000000     0.0396233  
H251     H      0.560160000000     0.256860000000     0.851940000000     0.0391879  
H252     H      0.959270000000     0.261350000000     0.852000000000     0.0390656  
H253     H      0.956380000000     0.255730000000     0.601780000000     0.0389727  
H254     H      0.557230000000     0.261110000000     0.602050000000     0.0389678  
H255     H      0.557240000000     0.259750000000     0.658370000000     0.0391697  
H256     H      0.956370000000     0.254640000000     0.658590000000     0.0388802  
H257     H      0.604400000000     0.046070000000     0.725190000000     0.0343036  
H258     H      0.604530000000     0.473300000000     0.794460000000     0.0356024  
H259     H      0.662260000000     0.471590000000     0.792310000000     0.0358943  
H260     H      0.661830000000     0.047690000000     0.726630000000     0.0358222  
H261     H      0.912130000000     0.042790000000     0.715930000000     0.0361789  
H262     H      0.912250000000     0.470020000000     0.785190000000     0.0353701  
H263     H      0.854810000000     0.468400000000     0.783750000000     0.0362533  
H264     H      0.854400000000     0.044510000000     0.718080000000     0.0359289  
H265     H      0.970950000000     0.412080000000     0.786190000000     0.0353737  
H266     H      0.543540000000     0.411700000000     0.716710000000     0.03548    
H267     H      0.545250000000     0.354000000000     0.719050000000     0.0356774  
H268     H      0.969350000000     0.354660000000     0.784990000000     0.036163   
H269     H      0.545450000000     0.104040000000     0.723960000000     0.0346284  
H270     H      0.973340000000     0.104370000000     0.793930000000     0.0357421  
H271     H      0.971620000000     0.162070000000     0.791630000000     0.0358969  
H272     H      0.547040000000     0.161450000000     0.725160000000     0.0358927  
H273     H      0.604590000000     0.470580000000     0.538210000000     0.0363936  
H274     H      0.604360000000     0.044710000000     0.970340000000     0.0367036  
H275     H      0.661910000000     0.046220000000     0.971870000000     0.0364115  
H276     H      0.662100000000     0.468950000000     0.536190000000     0.0360131  
H277     H      0.854370000000     0.044090000000     0.970840000000     0.0354156  
H278     H      0.854620000000     0.472900000000     0.541720000000     0.0353754  
H279     H      0.912270000000     0.474680000000     0.543190000000     0.0351676  
H280     H      0.911970000000     0.042120000000     0.968780000000     0.0346868  
H281     H      0.542660000000     0.411730000000     0.966420000000     0.0361199  
H282     H      0.971460000000     0.411980000000     0.537320000000     0.0360157  
H283     H      0.970210000000     0.354600000000     0.536420000000     0.0367224  
H284     H      0.544670000000     0.354080000000     0.968870000000     0.0364848  
H285     H      0.970720000000     0.161460000000     0.973710000000     0.0369234  
H286     H      0.544780000000     0.162010000000     0.541710000000     0.0359834  
H287     H      0.542890000000     0.104350000000     0.544020000000     0.0356628  
H288     H      0.972020000000     0.104130000000     0.972780000000     0.0359862  
H289     H      0.760720000000     0.558380000000     0.408560000000     0.0392722  
H290     H      0.760520000000     0.957410000000     0.408350000000     0.038763   
H291     H      0.761180000000     0.957620000000     0.351780000000     0.0390036  
H292     H      0.761420000000     0.558600000000     0.352000000000     0.0389716  
H293     H      0.756320000000     0.558690000000     0.102020000000     0.03876    
H294     H      0.755780000000     0.957720000000     0.101810000000     0.0388686  
H295     H      0.755090000000     0.957500000000     0.158370000000     0.0386737  
H296     H      0.755650000000     0.558470000000     0.158590000000     0.0391998  
H297     H      0.959060000000     0.760180000000     0.408300000000     0.0388052  
H298     H      0.559940000000     0.755480000000     0.408750000000     0.0391485  
H299     H      0.560160000000     0.756860000000     0.351940000000     0.0390384  
H300     H      0.959270000000     0.761350000000     0.352000000000     0.0389303  
H301     H      0.956380000000     0.755730000000     0.101790000000     0.0388204  
H302     H      0.557230000000     0.761110000000     0.102050000000     0.0388345  
H303     H      0.557240000000     0.759750000000     0.158370000000     0.0391306  
H304     H      0.956370000000     0.754640000000     0.158590000000     0.0388369  
H305     H      0.604400000000     0.546070000000     0.225190000000     0.0345139  
H306     H      0.604530000000     0.973300000000     0.294460000000     0.0359624  
H307     H      0.662260000000     0.971590000000     0.292310000000     0.0359644  
H308     H      0.661830000000     0.547690000000     0.226630000000     0.0358256  
H309     H      0.912130000000     0.542790000000     0.215930000000     0.0363608  
H310     H      0.912250000000     0.970020000000     0.285190000000     0.0357095  
H311     H      0.854810000000     0.968400000000     0.283750000000     0.0362835  
H312     H      0.854400000000     0.544510000000     0.218080000000     0.035984   
H313     H      0.970950000000     0.912080000000     0.286190000000     0.0359042  
H314     H      0.543540000000     0.911700000000     0.216710000000     0.0361802  
H315     H      0.545250000000     0.854000000000     0.219060000000     0.0358105  
H316     H      0.969350000000     0.854660000000     0.284980000000     0.0362426  
H317     H      0.545450000000     0.604040000000     0.223950000000     0.0347041  
H318     H      0.973340000000     0.604380000000     0.293930000000     0.0358316  
H319     H      0.971620000000     0.662070000000     0.291630000000     0.0358222  
H320     H      0.547040000000     0.661450000000     0.225160000000     0.0358688  
H321     H      0.604590000000     0.970580000000     0.038210000000     0.0366998  
H322     H      0.604360000000     0.544710000000     0.470340000000     0.0367225  
H323     H      0.661910000000     0.546220000000     0.471870000000     0.0361114  
H324     H      0.662100000000     0.968950000000     0.036180000000     0.0359315  
H325     H      0.854370000000     0.544090000000     0.470840000000     0.0352444  
H326     H      0.854620000000     0.972900000000     0.041720000000     0.0354708  
H327     H      0.912270000000     0.974680000000     0.043190000000     0.0356391  
H328     H      0.911970000000     0.542120000000     0.468780000000     0.0348424  
H329     H      0.542660000000     0.911730000000     0.466420000000     0.0366316  
H330     H      0.971460000000     0.911980000000     0.037320000000     0.0365808  
H331     H      0.970200000000     0.854600000000     0.036410000000     0.0367147  
H332     H      0.544670000000     0.854080000000     0.468870000000     0.0362819  
H333     H      0.970720000000     0.661460000000     0.473710000000     0.0365745  
H334     H      0.544780000000     0.662010000000     0.041710000000     0.0358176  
H335     H      0.542890000000     0.604350000000     0.044020000000     0.0356948  
H336     H      0.972020000000     0.604130000000     0.472780000000     0.0360218  
H337     H      0.760720000000     0.558380000000     0.908560000000     0.039749   
H338     H      0.760520000000     0.957410000000     0.908350000000     0.0393154  
H339     H      0.761180000000     0.957620000000     0.851780000000     0.0392081  
H340     H      0.761420000000     0.558600000000     0.852000000000     0.0391489  
H341     H      0.756320000000     0.558690000000     0.602020000000     0.0389669  
H342     H      0.755780000000     0.957720000000     0.601810000000     0.0390224  
H343     H      0.755090000000     0.957500000000     0.658370000000     0.0387511  
H344     H      0.755650000000     0.558470000000     0.658590000000     0.0392965  
H345     H      0.959060000000     0.760180000000     0.908300000000     0.0393357  
H346     H      0.559940000000     0.755480000000     0.908750000000     0.0396654  
H347     H      0.560160000000     0.756860000000     0.851940000000     0.0392323  
H348     H      0.959270000000     0.761350000000     0.852000000000     0.0391195  
H349     H      0.956380000000     0.755730000000     0.601780000000     0.0390185  
H350     H      0.557230000000     0.761110000000     0.602050000000     0.0390193  
H351     H      0.557240000000     0.759750000000     0.658370000000     0.0392162  
H352     H      0.956370000000     0.754640000000     0.658590000000     0.0389269  
H353     H      0.604400000000     0.546070000000     0.725190000000     0.0345476  
H354     H      0.604530000000     0.973300000000     0.794460000000     0.03606    
H355     H      0.662260000000     0.971590000000     0.792310000000     0.0360799  
H356     H      0.661830000000     0.547690000000     0.726630000000     0.0358765  
H357     H      0.912130000000     0.542790000000     0.715930000000     0.0364118  
H358     H      0.912250000000     0.970020000000     0.785190000000     0.0358015  
H359     H      0.854810000000     0.968400000000     0.783750000000     0.0363866  
H360     H      0.854400000000     0.544510000000     0.718080000000     0.0360381  
H361     H      0.970950000000     0.912080000000     0.786190000000     0.0359972  
H362     H      0.543540000000     0.911700000000     0.716710000000     0.0362145  
H363     H      0.545250000000     0.854000000000     0.719050000000     0.0358492  
H364     H      0.969350000000     0.854660000000     0.784990000000     0.0363432  
H365     H      0.545450000000     0.604040000000     0.723950000000     0.0347394  
H366     H      0.973340000000     0.604380000000     0.793930000000     0.0359118  
H367     H      0.971620000000     0.662070000000     0.791630000000     0.0359197  
H368     H      0.547040000000     0.661450000000     0.725160000000     0.0359189  
H369     H      0.604590000000     0.970580000000     0.538210000000     0.0368532  
H370     H      0.604360000000     0.544710000000     0.970340000000     0.036944   
H371     H      0.661910000000     0.546220000000     0.971870000000     0.0365103  
H372     H      0.662100000000     0.968950000000     0.536190000000     0.0361511  
H373     H      0.854370000000     0.544090000000     0.970840000000     0.0355584  
H374     H      0.854620000000     0.972900000000     0.541720000000     0.0356286  
H375     H      0.912270000000     0.974680000000     0.543190000000     0.0356668  
H376     H      0.911970000000     0.542120000000     0.968780000000     0.0349069  
H377     H      0.542660000000     0.911730000000     0.966420000000     0.0368586  
H378     H      0.971460000000     0.911980000000     0.537320000000     0.0366502  
H379     H      0.970200000000     0.854600000000     0.536420000000     0.0368905  
H380     H      0.544670000000     0.854080000000     0.968870000000     0.0366615  
H381     H      0.970720000000     0.661460000000     0.973720000000     0.0369682  
H382     H      0.544780000000     0.662010000000     0.541710000000     0.0360361  
H383     H      0.542890000000     0.604350000000     0.544030000000     0.0358195  
H384     H      0.972020000000     0.604130000000     0.972780000000     0.0360895  
N1       N      0.260400000000     0.507840000000     0.412940000000    -0.180188   
N2       N      0.261210000000     0.508170000000     0.347400000000    -0.180167   
N3       N      0.256270000000     0.508260000000     0.097430000000    -0.180167   
N4       N      0.255460000000     0.507930000000     0.162970000000    -0.180166   
N5       N      0.509480000000     0.257680000000     0.413020000000    -0.180111   
N6       N      0.009770000000     0.259180000000     0.347470000000    -0.182321   
N7       N      0.506810000000     0.258540000000     0.097430000000    -0.180131   
N8       N      0.006770000000     0.257080000000     0.162980000000    -0.182268   
N9       N      0.100570000000     0.509550000000     0.259740000000    -0.181314   
N10      N      0.165990000000     0.509510000000     0.259290000000    -0.181174   
N11      N      0.416080000000     0.506540000000     0.250650000000    -0.181367   
N12      N      0.350660000000     0.506590000000     0.251090000000    -0.181195   
N13      N      0.507360000000     0.415790000000     0.251500000000    -0.181477   
N14      N      0.507420000000     0.350390000000     0.252210000000    -0.181313   
N15      N      0.509280000000     0.100300000000     0.258880000000    -0.18138    
N16      N      0.509200000000     0.165710000000     0.258210000000    -0.181322   
N17      N      0.100530000000     0.007680000000     0.004320000000    -0.186023   
N18      N      0.165950000000     0.007590000000     0.004010000000    -0.185915   
N19      N      0.350630000000     0.008500000000     0.006310000000    -0.186033   
N20      N      0.415970000000     0.008380000000     0.005950000000    -0.186088   
N21      N      0.007120000000     0.415790000000     0.501890000000    -0.184433   
N22      N      0.007580000000     0.350370000000     0.002830000000    -0.185525   
N23      N      0.007890000000     0.165720000000     0.507530000000    -0.183215   
N24      N      0.007530000000     0.100280000000     0.508380000000    -0.184337   
N25      N      0.260400000000     0.507840000000     0.912940000000    -0.179862   
N26      N      0.261210000000     0.508170000000     0.847400000000    -0.180144   
N27      N      0.256270000000     0.508260000000     0.597430000000    -0.180182   
N28      N      0.255460000000     0.507930000000     0.662970000000    -0.180158   
N29      N      0.509480000000     0.257680000000     0.913020000000    -0.179781   
N30      N      0.009770000000     0.259180000000     0.847470000000    -0.182295   
N31      N      0.506810000000     0.258540000000     0.597430000000    -0.180153   
N32      N      0.006770000000     0.257070000000     0.662980000000    -0.182261   
N33      N      0.100570000000     0.509550000000     0.759740000000    -0.181305   
N34      N      0.165990000000     0.509510000000     0.759290000000    -0.181157   
N35      N      0.416080000000     0.506540000000     0.750650000000    -0.181303   
N36      N      0.350660000000     0.506590000000     0.751090000000    -0.181183   
N37      N      0.507360000000     0.415790000000     0.751500000000    -0.181465   
N38      N      0.507420000000     0.350390000000     0.752210000000    -0.181299   
N39      N      0.509280000000     0.100300000000     0.758880000000    -0.181365   
N40      N      0.509200000000     0.165710000000     0.758210000000    -0.181307   
N41      N      0.100530000000     0.007680000000     0.504320000000    -0.184567   
N42      N      0.165950000000     0.007590000000     0.504010000000    -0.18369    
N43      N      0.350630000000     0.008510000000     0.506310000000    -0.183784   
N44      N      0.415970000000     0.008380000000     0.505950000000    -0.18465    
N45      N      0.007120000000     0.415790000000     0.001890000000    -0.185887   
N46      N      0.007580000000     0.350370000000     0.502830000000    -0.1833     
N47      N      0.007890000000     0.165720000000     0.007530000000    -0.185414   
N48      N      0.007530000000     0.100280000000     0.008370000000    -0.185799   
N49      N      0.260400000000     0.007840000000     0.412940000000    -0.182413   
N50      N      0.261210000000     0.008170000000     0.347400000000    -0.182352   
N51      N      0.256270000000     0.008260000000     0.097430000000    -0.182395   
N52      N      0.255460000000     0.007930000000     0.162970000000    -0.182344   
N53      N      0.509480000000     0.757680000000     0.413020000000    -0.18013    
N54      N      0.009770000000     0.759180000000     0.347470000000    -0.182344   
N55      N      0.506810000000     0.758540000000     0.097430000000    -0.180114   
N56      N      0.006770000000     0.757080000000     0.162980000000    -0.182253   
N57      N      0.100570000000     0.009550000000     0.259740000000    -0.184546   
N58      N      0.165990000000     0.009510000000     0.259290000000    -0.183249   
N59      N      0.416080000000     0.006530000000     0.250650000000    -0.184573   
N60      N      0.350660000000     0.006580000000     0.251090000000    -0.1833     
N61      N      0.507360000000     0.915790000000     0.251500000000    -0.181025   
N62      N      0.507430000000     0.850390000000     0.252210000000    -0.181287   
N63      N      0.509280000000     0.600300000000     0.258880000000    -0.181423   
N64      N      0.509200000000     0.665710000000     0.258210000000    -0.181288   
N65      N      0.100530000000     0.507680000000     0.004320000000    -0.18283    
N66      N      0.165950000000     0.507590000000     0.004010000000    -0.183823   
N67      N      0.350630000000     0.508510000000     0.006310000000    -0.183852   
N68      N      0.415970000000     0.508380000000     0.005950000000    -0.182909   
N69      N      0.007120000000     0.915790000000     0.501890000000    -0.183952   
N70      N      0.007580000000     0.850370000000     0.002830000000    -0.185486   
N71      N      0.007890000000     0.665720000000     0.507530000000    -0.183205   
N72      N      0.007530000000     0.600280000000     0.508380000000    -0.184383   
N73      N      0.260400000000     0.007840000000     0.912940000000    -0.182032   
N74      N      0.261210000000     0.008170000000     0.847400000000    -0.182327   
N75      N      0.256270000000     0.008260000000     0.597430000000    -0.182426   
N76      N      0.255460000000     0.007930000000     0.662970000000    -0.182337   
N77      N      0.509480000000     0.757680000000     0.913020000000    -0.179802   
N78      N      0.009770000000     0.759180000000     0.847470000000    -0.182318   
N79      N      0.506810000000     0.758540000000     0.597430000000    -0.180142   
N80      N      0.006770000000     0.757080000000     0.662980000000    -0.182245   
N81      N      0.100570000000     0.009550000000     0.759740000000    -0.184532   
N82      N      0.165990000000     0.009510000000     0.759290000000    -0.183232   
N83      N      0.416080000000     0.006530000000     0.750650000000    -0.184508   
N84      N      0.350660000000     0.006580000000     0.751090000000    -0.183287   
N85      N      0.507360000000     0.915790000000     0.751500000000    -0.181012   
N86      N      0.507430000000     0.850390000000     0.752210000000    -0.181273   
N87      N      0.509280000000     0.600300000000     0.758880000000    -0.181422   
N88      N      0.509200000000     0.665710000000     0.758210000000    -0.181271   
N89      N      0.100530000000     0.507670000000     0.504320000000    -0.181366   
N90      N      0.165950000000     0.507590000000     0.504010000000    -0.181584   
N91      N      0.350630000000     0.508510000000     0.506310000000    -0.181604   
N92      N      0.415970000000     0.508380000000     0.505950000000    -0.181448   
N93      N      0.007120000000     0.915790000000     0.001890000000    -0.185406   
N94      N      0.007580000000     0.850370000000     0.502830000000    -0.183268   
N95      N      0.007890000000     0.665720000000     0.007530000000    -0.185403   
N96      N      0.007530000000     0.600280000000     0.008370000000    -0.185849   
N97      N      0.760400000000     0.507840000000     0.412940000000    -0.180224   
N98      N      0.761200000000     0.508170000000     0.347400000000    -0.18016    
N99      N      0.756270000000     0.508260000000     0.097430000000    -0.180151   
N100     N      0.755460000000     0.507930000000     0.162970000000    -0.180156   
N101     N      0.009480000000     0.257680000000     0.413020000000    -0.18229    
N102     N      0.509770000000     0.259180000000     0.347470000000    -0.180139   
N103     N      0.006810000000     0.258540000000     0.097430000000    -0.182286   
N104     N      0.506770000000     0.257080000000     0.162980000000    -0.180112   
N105     N      0.600570000000     0.509550000000     0.259740000000    -0.181336   
N106     N      0.666000000000     0.509510000000     0.259290000000    -0.181277   
N107     N      0.916080000000     0.506540000000     0.250650000000    -0.180919   
N108     N      0.850660000000     0.506590000000     0.251090000000    -0.181167   
N109     N      0.007360000000     0.415790000000     0.251500000000    -0.184678   
N110     N      0.007420000000     0.350390000000     0.252210000000    -0.183407   
N111     N      0.009270000000     0.100300000000     0.258880000000    -0.184578   
N112     N      0.009200000000     0.165710000000     0.258210000000    -0.183419   
N113     N      0.600530000000     0.007680000000     0.004320000000    -0.186084   
N114     N      0.665950000000     0.007590000000     0.004010000000    -0.185901   
N115     N      0.850630000000     0.008510000000     0.006310000000    -0.185978   
N116     N      0.915970000000     0.008380000000     0.005950000000    -0.185608   
N117     N      0.507130000000     0.415790000000     0.501890000000    -0.181226   
N118     N      0.507580000000     0.350370000000     0.002830000000    -0.183468   
N119     N      0.507890000000     0.165720000000     0.507530000000    -0.181117   
N120     N      0.507530000000     0.100280000000     0.508380000000    -0.181137   
N121     N      0.760400000000     0.507840000000     0.912940000000    -0.179844   
N122     N      0.761200000000     0.508170000000     0.847400000000    -0.180138   
N123     N      0.756270000000     0.508260000000     0.597430000000    -0.180222   
N124     N      0.755460000000     0.507930000000     0.662970000000    -0.180145   
N125     N      0.009480000000     0.257680000000     0.913020000000    -0.181942   
N126     N      0.509770000000     0.259180000000     0.847470000000    -0.180114   
N127     N      0.006810000000     0.258540000000     0.597430000000    -0.182317   
N128     N      0.506770000000     0.257080000000     0.662980000000    -0.180104   
N129     N      0.600570000000     0.509550000000     0.759740000000    -0.181331   
N130     N      0.666000000000     0.509510000000     0.759290000000    -0.181238   
N131     N      0.916080000000     0.506540000000     0.750650000000    -0.180856   
N132     N      0.850660000000     0.506590000000     0.751090000000    -0.181155   
N133     N      0.007360000000     0.415790000000     0.751500000000    -0.184663   
N134     N      0.007420000000     0.350390000000     0.752210000000    -0.183394   
N135     N      0.009270000000     0.100300000000     0.758880000000    -0.184558   
N136     N      0.009200000000     0.165710000000     0.758210000000    -0.183403   
N137     N      0.600530000000     0.007670000000     0.504320000000    -0.184631   
N138     N      0.665950000000     0.007590000000     0.504010000000    -0.183676   
N139     N      0.850630000000     0.008510000000     0.506310000000    -0.183734   
N140     N      0.915970000000     0.008380000000     0.505950000000    -0.184178   
N141     N      0.507130000000     0.415790000000     0.001890000000    -0.182691   
N142     N      0.507580000000     0.350370000000     0.502830000000    -0.181235   
N143     N      0.507890000000     0.165720000000     0.007530000000    -0.183354   
N144     N      0.507530000000     0.100280000000     0.008380000000    -0.182605   
N145     N      0.760400000000     0.007840000000     0.412940000000    -0.182395   
N146     N      0.761210000000     0.008170000000     0.347400000000    -0.182331   
N147     N      0.756270000000     0.008260000000     0.097430000000    -0.182378   
N148     N      0.755460000000     0.007930000000     0.162970000000    -0.182325   
N149     N      0.009480000000     0.757680000000     0.413020000000    -0.182304   
N150     N      0.509770000000     0.759180000000     0.347470000000    -0.180169   
N151     N      0.006810000000     0.758540000000     0.097430000000    -0.182264   
N152     N      0.506770000000     0.757080000000     0.162980000000    -0.180098   
N153     N      0.600570000000     0.009550000000     0.259740000000    -0.184559   
N154     N      0.665990000000     0.009510000000     0.259290000000    -0.18324    
N155     N      0.916080000000     0.006530000000     0.250650000000    -0.184086   
N156     N      0.850660000000     0.006580000000     0.251090000000    -0.183272   
N157     N      0.007360000000     0.915790000000     0.251500000000    -0.184224   
N158     N      0.007420000000     0.850390000000     0.252210000000    -0.183367   
N159     N      0.009280000000     0.600300000000     0.258880000000    -0.184626   
N160     N      0.009200000000     0.665710000000     0.258210000000    -0.183375   
N161     N      0.600530000000     0.507680000000     0.004320000000    -0.182873   
N162     N      0.665950000000     0.507590000000     0.004010000000    -0.18382    
N163     N      0.850630000000     0.508510000000     0.006310000000    -0.183822   
N164     N      0.915960000000     0.508380000000     0.005950000000    -0.182451   
N165     N      0.507120000000     0.915790000000     0.501890000000    -0.180766   
N166     N      0.507580000000     0.850370000000     0.002830000000    -0.183439   
N167     N      0.507890000000     0.665720000000     0.507530000000    -0.18111    
N168     N      0.507540000000     0.600280000000     0.508380000000    -0.181194   
N169     N      0.760400000000     0.007840000000     0.912940000000    -0.182067   
N170     N      0.761210000000     0.008170000000     0.847400000000    -0.182304   
N171     N      0.756270000000     0.008260000000     0.597430000000    -0.182409   
N172     N      0.755460000000     0.007930000000     0.662970000000    -0.182318   
N173     N      0.009480000000     0.757680000000     0.913020000000    -0.181956   
N174     N      0.509770000000     0.759180000000     0.847470000000    -0.180146   
N175     N      0.006810000000     0.758540000000     0.597430000000    -0.182296   
N176     N      0.506770000000     0.757080000000     0.662980000000    -0.180088   
N177     N      0.600570000000     0.009550000000     0.759740000000    -0.184571   
N178     N      0.665990000000     0.009510000000     0.759290000000    -0.183215   
N179     N      0.916080000000     0.006530000000     0.750650000000    -0.184022   
N180     N      0.850660000000     0.006580000000     0.751090000000    -0.18326    
N181     N      0.007360000000     0.915790000000     0.751500000000    -0.184208   
N182     N      0.007420000000     0.850390000000     0.752210000000    -0.183354   
N183     N      0.009280000000     0.600300000000     0.758880000000    -0.184606   
N184     N      0.009200000000     0.665710000000     0.758210000000    -0.183359   
N185     N      0.600530000000     0.507670000000     0.504320000000    -0.181408   
N186     N      0.665950000000     0.507590000000     0.504010000000    -0.181583   
N187     N      0.850630000000     0.508510000000     0.506310000000    -0.181605   
N188     N      0.915960000000     0.508380000000     0.505950000000    -0.180991   
N189     N      0.507120000000     0.915790000000     0.001890000000    -0.182229   
N190     N      0.507580000000     0.850370000000     0.502830000000    -0.181207   
N191     N      0.507890000000     0.665720000000     0.007530000000    -0.183352   
N192     N      0.507530000000     0.600280000000     0.008380000000    -0.18266    
Ni1      Ni     0.008450000000     0.006550000000     0.033030000000     0.986273   
Ni2      Ni     0.007980000000     0.509500000000     0.477240000000     0.998221   
Ni3      Ni     0.506470000000     0.506430000000     0.283110000000     1.00608    
Ni4      Ni     0.510180000000     0.509650000000     0.227280000000     1.00606    
Ni5      Ni     0.480010000000     0.258000000000     0.504860000000     1.00758    
Ni6      Ni     0.036120000000     0.258110000000     0.005580000000     0.986599   
Ni7      Ni     0.036420000000     0.258280000000     0.254300000000     0.997279   
Ni8      Ni     0.480190000000     0.257810000000     0.256150000000     1.00545    
Ni9      Ni     0.258190000000     0.036170000000     0.004600000000     0.994166   
Ni10     Ni     0.258470000000     0.479920000000     0.505770000000     1.00599    
Ni11     Ni     0.257910000000     0.479930000000     0.255750000000     1.00489    
Ni12     Ni     0.258750000000     0.036170000000     0.254630000000     0.997387   
Ni13     Ni     0.008450000000     0.006550000000     0.533030000000     0.991591   
Ni14     Ni     0.007980000000     0.509500000000     0.977240000000     1.00093    
Ni15     Ni     0.506470000000     0.506430000000     0.783110000000     1.00616    
Ni16     Ni     0.510180000000     0.509650000000     0.727280000000     1.00597    
Ni17     Ni     0.480010000000     0.258000000000     0.004870000000     1.00327    
Ni18     Ni     0.036120000000     0.258110000000     0.505580000000     0.99065    
Ni19     Ni     0.036420000000     0.258280000000     0.754300000000     0.997363   
Ni20     Ni     0.480190000000     0.257810000000     0.756150000000     1.00553    
Ni21     Ni     0.258190000000     0.036170000000     0.504600000000     0.998586   
Ni22     Ni     0.258470000000     0.479920000000     0.005770000000     1.00182    
Ni23     Ni     0.257910000000     0.479930000000     0.755750000000     1.00496    
Ni24     Ni     0.258750000000     0.036170000000     0.754630000000     0.997467   
Ni25     Ni     0.008450000000     0.506550000000     0.033030000000     0.992505   
Ni26     Ni     0.007980000000     0.009500000000     0.477240000000     0.992275   
Ni27     Ni     0.506460000000     0.006430000000     0.283110000000     1.00001    
Ni28     Ni     0.510180000000     0.009650000000     0.227280000000     1.00006    
Ni29     Ni     0.480010000000     0.758000000000     0.504860000000     1.00759    
Ni30     Ni     0.036120000000     0.758110000000     0.005580000000     0.986639   
Ni31     Ni     0.036420000000     0.758280000000     0.254300000000     0.9975     
Ni32     Ni     0.480190000000     0.757810000000     0.256150000000     1.00548    
Ni33     Ni     0.258190000000     0.536170000000     0.004600000000     1.00176    
Ni34     Ni     0.258470000000     0.979920000000     0.505770000000     1.00984    
Ni35     Ni     0.257900000000     0.979930000000     0.255750000000     1.00884    
Ni36     Ni     0.258750000000     0.536160000000     0.254630000000     1.00497    
Ni37     Ni     0.008450000000     0.506550000000     0.533030000000     0.997855   
Ni38     Ni     0.007990000000     0.009500000000     0.977240000000     0.994994   
Ni39     Ni     0.506460000000     0.006430000000     0.783110000000     1.00014    
Ni40     Ni     0.510180000000     0.009650000000     0.727280000000     0.999933   
Ni41     Ni     0.480010000000     0.758000000000     0.004870000000     1.00325    
Ni42     Ni     0.036120000000     0.758110000000     0.505580000000     0.990691   
Ni43     Ni     0.036420000000     0.758280000000     0.754300000000     0.997584   
Ni44     Ni     0.480190000000     0.757810000000     0.756150000000     1.00556    
Ni45     Ni     0.258190000000     0.536170000000     0.504600000000     1.00619    
Ni46     Ni     0.258470000000     0.979920000000     0.005770000000     1.00562    
Ni47     Ni     0.257900000000     0.979930000000     0.755750000000     1.00892    
Ni48     Ni     0.258750000000     0.536160000000     0.754630000000     1.00505    
Ni49     Ni     0.508450000000     0.006550000000     0.033030000000     0.992274   
Ni50     Ni     0.507980000000     0.509500000000     0.477240000000     1.0044     
Ni51     Ni     0.006470000000     0.506430000000     0.283110000000     0.999967   
Ni52     Ni     0.010180000000     0.509650000000     0.227280000000     1.00012    
Ni53     Ni     0.980010000000     0.258000000000     0.504860000000     1.01136    
Ni54     Ni     0.536120000000     0.258110000000     0.005580000000     0.994013   
Ni55     Ni     0.536420000000     0.258280000000     0.254300000000     1.00512    
Ni56     Ni     0.980190000000     0.257810000000     0.256150000000     1.00926    
Ni57     Ni     0.758190000000     0.036170000000     0.004600000000     0.994198   
Ni58     Ni     0.758470000000     0.479920000000     0.505770000000     1.00614    
Ni59     Ni     0.757900000000     0.479930000000     0.255750000000     1.0049     
Ni60     Ni     0.758750000000     0.036170000000     0.254630000000     0.997431   
Ni61     Ni     0.508450000000     0.006550000000     0.533030000000     0.997617   
Ni62     Ni     0.507980000000     0.509500000000     0.977240000000     1.0071     
Ni63     Ni     0.006470000000     0.506430000000     0.783110000000     1.00002    
Ni64     Ni     0.010180000000     0.509650000000     0.727280000000     1.00006    
Ni65     Ni     0.980010000000     0.258000000000     0.004870000000     1.00702    
Ni66     Ni     0.536120000000     0.258110000000     0.505580000000     0.998291   
Ni67     Ni     0.536420000000     0.258280000000     0.754300000000     1.00519    
Ni68     Ni     0.980190000000     0.257810000000     0.756150000000     1.00933    
Ni69     Ni     0.758190000000     0.036170000000     0.504600000000     0.99859    
Ni70     Ni     0.758470000000     0.479920000000     0.005770000000     1.00187    
Ni71     Ni     0.757900000000     0.479930000000     0.755750000000     1.00498    
Ni72     Ni     0.758750000000     0.036170000000     0.754630000000     0.997511   
Ni73     Ni     0.508450000000     0.506550000000     0.033030000000     0.998503   
Ni74     Ni     0.507990000000     0.009500000000     0.477240000000     0.998447   
Ni75     Ni     0.006470000000     0.006430000000     0.283110000000     0.993679   
Ni76     Ni     0.010180000000     0.009650000000     0.227280000000     0.994152   
Ni77     Ni     0.980010000000     0.758000000000     0.504860000000     1.01136    
Ni78     Ni     0.536120000000     0.758110000000     0.005580000000     0.994224   
Ni79     Ni     0.536420000000     0.758280000000     0.254300000000     1.00511    
Ni80     Ni     0.980190000000     0.757810000000     0.256150000000     1.00923    
Ni81     Ni     0.758190000000     0.536170000000     0.004600000000     1.00158    
Ni82     Ni     0.758470000000     0.979920000000     0.505770000000     1.01003    
Ni83     Ni     0.757910000000     0.979930000000     0.255750000000     1.00884    
Ni84     Ni     0.758750000000     0.536160000000     0.254630000000     1.00501    
Ni85     Ni     0.508450000000     0.506550000000     0.533030000000     1.00389    
Ni86     Ni     0.507990000000     0.009500000000     0.977240000000     1.00115    
Ni87     Ni     0.006470000000     0.006430000000     0.783110000000     0.993776   
Ni88     Ni     0.010180000000     0.009650000000     0.727280000000     0.99406    
Ni89     Ni     0.980010000000     0.758000000000     0.004870000000     1.00702    
Ni90     Ni     0.536120000000     0.758110000000     0.505580000000     0.998305   
Ni91     Ni     0.536420000000     0.758280000000     0.754300000000     1.00519    
Ni92     Ni     0.980190000000     0.757810000000     0.756150000000     1.0093     
Ni93     Ni     0.758190000000     0.536170000000     0.504600000000     1.00606    
Ni94     Ni     0.758470000000     0.979920000000     0.005770000000     1.00586    
Ni95     Ni     0.757910000000     0.979930000000     0.755750000000     1.00891    
Ni96     Ni     0.758750000000     0.536160000000     0.754630000000     1.00509    
O1       O      0.511600000000     0.052050000000     0.032790000000    -0.441059   
O2       O      0.005140000000     0.461860000000     0.029380000000    -0.448884   
O3       O      0.053560000000     0.003410000000     0.030490000000    -0.44563    
O4       O      0.463280000000     0.508560000000     0.031730000000    -0.444811   
O5       O      0.462830000000     0.007780000000     0.479360000000    -0.447076   
O6       O      0.053150000000     0.512350000000     0.478960000000    -0.445467   
O7       O      0.510880000000     0.463990000000     0.477420000000    -0.443356   
O8       O      0.005010000000     0.054200000000     0.480940000000    -0.449732   
O9       O      0.006040000000     0.461660000000     0.279300000000    -0.450997   
O10      O      0.505820000000     0.052010000000     0.283160000000    -0.443251   
O11      O      0.461710000000     0.505700000000     0.278880000000    -0.449503   
O12      O      0.052060000000     0.006050000000     0.283600000000    -0.444203   
O13      O      0.054940000000     0.510390000000     0.231510000000    -0.448539   
O14      O      0.464590000000     0.010020000000     0.226790000000    -0.444426   
O15      O      0.010600000000     0.054430000000     0.231090000000    -0.449288   
O16      O      0.510850000000     0.464070000000     0.227230000000    -0.444132   
O17      O      0.482030000000     0.212890000000     0.002940000000    -0.448996   
O18      O      0.481790000000     0.303130000000     0.506850000000    -0.447824   
O19      O      0.482730000000     0.259530000000     0.459990000000    -0.448113   
O20      O      0.481110000000     0.256480000000     0.049850000000    -0.446333   
O21      O      0.033400000000     0.261230000000     0.050390000000    -0.444234   
O22      O      0.035040000000     0.255000000000     0.460670000000    -0.443654   
O23      O      0.034120000000     0.303250000000     0.001580000000    -0.443606   
O24      O      0.034210000000     0.212960000000     0.509510000000    -0.442715   
O25      O      0.034230000000     0.303480000000     0.252510000000    -0.444493   
O26      O      0.034920000000     0.213060000000     0.254900000000    -0.445533   
O27      O      0.033640000000     0.257320000000     0.209700000000    -0.448552   
O28      O      0.035470000000     0.259210000000     0.299610000000    -0.442546   
O29      O      0.482960000000     0.259210000000     0.300730000000    -0.450792   
O30      O      0.481140000000     0.256490000000     0.210860000000    -0.444664   
O31      O      0.482410000000     0.212630000000     0.258260000000    -0.446731   
O32      O      0.481670000000     0.303030000000     0.255210000000    -0.447268   
O33      O      0.257370000000     0.034430000000     0.049870000000    -0.442893   
O34      O      0.259030000000     0.034170000000     0.459950000000    -0.448316   
O35      O      0.212990000000     0.034100000000     0.003240000000    -0.446312   
O36      O      0.303410000000     0.034560000000     0.504710000000    -0.445559   
O37      O      0.303660000000     0.482000000000     0.007330000000    -0.447703   
O38      O      0.213240000000     0.481530000000     0.505460000000    -0.447491   
O39      O      0.259450000000     0.481660000000     0.460510000000    -0.445155   
O40      O      0.257460000000     0.481920000000     0.050420000000    -0.449551   
O41      O      0.259920000000     0.481870000000     0.300370000000    -0.450159   
O42      O      0.255970000000     0.481730000000     0.210520000000    -0.445184   
O43      O      0.303130000000     0.481110000000     0.254240000000    -0.447111   
O44      O      0.212750000000     0.482420000000     0.258490000000    -0.446107   
O45      O      0.213520000000     0.034980000000     0.256120000000    -0.445123   
O46      O      0.303910000000     0.033670000000     0.251890000000    -0.444338   
O47      O      0.256750000000     0.034230000000     0.210010000000    -0.448065   
O48      O      0.260670000000     0.034370000000     0.299850000000    -0.443419   
O49      O      0.511600000000     0.052050000000     0.532790000000    -0.442358   
O50      O      0.005140000000     0.461860000000     0.529380000000    -0.450324   
O51      O      0.053560000000     0.003410000000     0.530490000000    -0.446973   
O52      O      0.463280000000     0.508560000000     0.531730000000    -0.446167   
O53      O      0.462830000000     0.007780000000     0.979360000000    -0.443133   
O54      O      0.053150000000     0.512350000000     0.978960000000    -0.441539   
O55      O      0.510880000000     0.463990000000     0.977420000000    -0.439349   
O56      O      0.005010000000     0.054200000000     0.980940000000    -0.445886   
O57      O      0.006040000000     0.461660000000     0.779300000000    -0.450937   
O58      O      0.505820000000     0.052010000000     0.783160000000    -0.443206   
O59      O      0.461710000000     0.505700000000     0.778880000000    -0.449394   
O60      O      0.052060000000     0.006050000000     0.783600000000    -0.444141   
O61      O      0.054940000000     0.510390000000     0.731510000000    -0.448518   
O62      O      0.464590000000     0.010020000000     0.726780000000    -0.444228   
O63      O      0.010600000000     0.054430000000     0.731090000000    -0.449368   
O64      O      0.510850000000     0.464070000000     0.727230000000    -0.444113   
O65      O      0.482030000000     0.212890000000     0.502940000000    -0.448055   
O66      O      0.481790000000     0.303130000000     0.006850000000    -0.448105   
O67      O      0.482730000000     0.259530000000     0.959990000000    -0.444506   
O68      O      0.481110000000     0.256480000000     0.549850000000    -0.446816   
O69      O      0.033400000000     0.261230000000     0.550400000000    -0.444765   
O70      O      0.035040000000     0.255000000000     0.960670000000    -0.440198   
O71      O      0.034120000000     0.303250000000     0.501580000000    -0.442668   
O72      O      0.034210000000     0.212960000000     0.009510000000    -0.443039   
O73      O      0.034230000000     0.303480000000     0.752510000000    -0.444451   
O74      O      0.034920000000     0.213060000000     0.754900000000    -0.445489   
O75      O      0.033640000000     0.257320000000     0.709700000000    -0.44853    
O76      O      0.035470000000     0.259210000000     0.799610000000    -0.442477   
O77      O      0.482960000000     0.259210000000     0.800730000000    -0.450711   
O78      O      0.481140000000     0.256490000000     0.710860000000    -0.44465    
O79      O      0.482410000000     0.212630000000     0.758260000000    -0.446691   
O80      O      0.481670000000     0.303030000000     0.755220000000    -0.447219   
O81      O      0.257370000000     0.034430000000     0.549870000000    -0.443476   
O82      O      0.259030000000     0.034170000000     0.959950000000    -0.444823   
O83      O      0.212990000000     0.034100000000     0.503240000000    -0.445463   
O84      O      0.303410000000     0.034560000000     0.004710000000    -0.446413   
O85      O      0.303660000000     0.482000000000     0.507330000000    -0.447356   
O86      O      0.213240000000     0.481530000000     0.005460000000    -0.447856   
O87      O      0.259450000000     0.481660000000     0.960510000000    -0.44164    
O88      O      0.257460000000     0.481920000000     0.550420000000    -0.450204   
O89      O      0.259920000000     0.481870000000     0.800370000000    -0.450089   
O90      O      0.255970000000     0.481730000000     0.710520000000    -0.445162   
O91      O      0.303130000000     0.481110000000     0.754240000000    -0.447072   
O92      O      0.212750000000     0.482420000000     0.758490000000    -0.446067   
O93      O      0.213520000000     0.034980000000     0.756120000000    -0.445078   
O94      O      0.303910000000     0.033670000000     0.751890000000    -0.444297   
O95      O      0.256750000000     0.034230000000     0.710010000000    -0.448039   
O96      O      0.260670000000     0.034370000000     0.799850000000    -0.443354   
O97      O      0.511600000000     0.552050000000     0.032790000000    -0.441916   
O98      O      0.005140000000     0.961860000000     0.029380000000    -0.443959   
O99      O      0.053560000000     0.503410000000     0.030490000000    -0.444293   
O100     O      0.463280000000     0.008560000000     0.031730000000    -0.44583    
O101     O      0.462820000000     0.507780000000     0.479360000000    -0.446533   
O102     O      0.053150000000     0.012350000000     0.478960000000    -0.445871   
O103     O      0.510880000000     0.963990000000     0.477420000000    -0.438339   
O104     O      0.005010000000     0.554200000000     0.480940000000    -0.450706   
O105     O      0.006040000000     0.961660000000     0.279300000000    -0.446054   
O106     O      0.505820000000     0.552010000000     0.283160000000    -0.444105   
O107     O      0.461710000000     0.005700000000     0.278880000000    -0.450842   
O108     O      0.052060000000     0.506050000000     0.283600000000    -0.443025   
O109     O      0.054940000000     0.010390000000     0.231510000000    -0.449056   
O110     O      0.464590000000     0.510020000000     0.226790000000    -0.443905   
O111     O      0.010600000000     0.554430000000     0.231090000000    -0.450264   
O112     O      0.510840000000     0.964070000000     0.227230000000    -0.439138   
O113     O      0.482030000000     0.712890000000     0.002940000000    -0.448995   
O114     O      0.481790000000     0.803130000000     0.506850000000    -0.447754   
O115     O      0.482730000000     0.759530000000     0.459990000000    -0.448088   
O116     O      0.481110000000     0.756480000000     0.049850000000    -0.446281   
O117     O      0.033400000000     0.761230000000     0.050390000000    -0.44421    
O118     O      0.035040000000     0.755000000000     0.460670000000    -0.443644   
O119     O      0.034120000000     0.803250000000     0.001580000000    -0.443546   
O120     O      0.034210000000     0.712960000000     0.509510000000    -0.442722   
O121     O      0.034230000000     0.803480000000     0.252510000000    -0.444458   
O122     O      0.034930000000     0.713070000000     0.254900000000    -0.445429   
O123     O      0.033640000000     0.757320000000     0.209700000000    -0.448563   
O124     O      0.035470000000     0.759210000000     0.299610000000    -0.442603   
O125     O      0.482970000000     0.759210000000     0.300730000000    -0.450942   
O126     O      0.481140000000     0.756490000000     0.210860000000    -0.444645   
O127     O      0.482410000000     0.712630000000     0.258260000000    -0.446672   
O128     O      0.481670000000     0.803030000000     0.255210000000    -0.447204   
O129     O      0.257370000000     0.534430000000     0.049870000000    -0.444696   
O130     O      0.259030000000     0.534170000000     0.459950000000    -0.450306   
O131     O      0.212990000000     0.534100000000     0.003240000000    -0.448294   
O132     O      0.303410000000     0.534560000000     0.504710000000    -0.447627   
O133     O      0.303660000000     0.982000000000     0.007330000000    -0.442018   
O134     O      0.213240000000     0.981530000000     0.505460000000    -0.441905   
O135     O      0.259450000000     0.981670000000     0.460510000000    -0.439677   
O136     O      0.257460000000     0.981930000000     0.050420000000    -0.444284   
O137     O      0.259920000000     0.981870000000     0.300370000000    -0.444825   
O138     O      0.255970000000     0.981730000000     0.210520000000    -0.439563   
O139     O      0.303130000000     0.981110000000     0.254240000000    -0.441427   
O140     O      0.212750000000     0.982420000000     0.258490000000    -0.44064    
O141     O      0.213520000000     0.534980000000     0.256120000000    -0.447072   
O142     O      0.303910000000     0.533670000000     0.251890000000    -0.446287   
O143     O      0.256750000000     0.534230000000     0.210010000000    -0.45009    
O144     O      0.260680000000     0.534370000000     0.299850000000    -0.44536    
O145     O      0.511600000000     0.552050000000     0.532790000000    -0.443236   
O146     O      0.005140000000     0.961860000000     0.529380000000    -0.445382   
O147     O      0.053560000000     0.503410000000     0.530490000000    -0.445654   
O148     O      0.463280000000     0.008560000000     0.531730000000    -0.447188   
O149     O      0.462820000000     0.507780000000     0.979360000000    -0.442583   
O150     O      0.053150000000     0.012350000000     0.978960000000    -0.442072   
O151     O      0.510880000000     0.963990000000     0.977420000000    -0.434361   
O152     O      0.005010000000     0.554200000000     0.980940000000    -0.446857   
O153     O      0.006040000000     0.961660000000     0.779300000000    -0.446109   
O154     O      0.505820000000     0.552010000000     0.783160000000    -0.444056   
O155     O      0.461710000000     0.005700000000     0.778880000000    -0.450735   
O156     O      0.052060000000     0.506050000000     0.783600000000    -0.44296    
O157     O      0.054940000000     0.010390000000     0.731510000000    -0.449031   
O158     O      0.464590000000     0.510020000000     0.726780000000    -0.443709   
O159     O      0.010600000000     0.554430000000     0.731090000000    -0.45035    
O160     O      0.510840000000     0.964070000000     0.727230000000    -0.43902    
O161     O      0.482030000000     0.712890000000     0.502940000000    -0.448054   
O162     O      0.481790000000     0.803130000000     0.006850000000    -0.448031   
O163     O      0.482730000000     0.759530000000     0.959990000000    -0.444483   
O164     O      0.481110000000     0.756480000000     0.549850000000    -0.446796   
O165     O      0.033400000000     0.761230000000     0.550400000000    -0.444742   
O166     O      0.035040000000     0.755000000000     0.960670000000    -0.440191   
O167     O      0.034120000000     0.803250000000     0.501580000000    -0.442609   
O168     O      0.034210000000     0.712960000000     0.009510000000    -0.443046   
O169     O      0.034230000000     0.803480000000     0.752510000000    -0.444415   
O170     O      0.034930000000     0.713070000000     0.754900000000    -0.445387   
O171     O      0.033640000000     0.757320000000     0.709700000000    -0.448541   
O172     O      0.035470000000     0.759210000000     0.799610000000    -0.442534   
O173     O      0.482970000000     0.759210000000     0.800730000000    -0.450865   
O174     O      0.481140000000     0.756490000000     0.710860000000    -0.444631   
O175     O      0.482410000000     0.712630000000     0.758260000000    -0.446633   
O176     O      0.481670000000     0.803030000000     0.755220000000    -0.447156   
O177     O      0.257370000000     0.534430000000     0.549870000000    -0.445281   
O178     O      0.259030000000     0.534170000000     0.959950000000    -0.446861   
O179     O      0.212990000000     0.534100000000     0.503240000000    -0.447446   
O180     O      0.303410000000     0.534560000000     0.004710000000    -0.448473   
O181     O      0.303660000000     0.982000000000     0.507330000000    -0.441667   
O182     O      0.213240000000     0.981530000000     0.005460000000    -0.442279   
O183     O      0.259450000000     0.981660000000     0.960510000000    -0.436023   
O184     O      0.257460000000     0.981930000000     0.550420000000    -0.444936   
O185     O      0.259920000000     0.981870000000     0.800370000000    -0.444762   
O186     O      0.255970000000     0.981730000000     0.710520000000    -0.43954    
O187     O      0.303130000000     0.981110000000     0.754240000000    -0.44139    
O188     O      0.212750000000     0.982420000000     0.758490000000    -0.440603   
O189     O      0.213520000000     0.534980000000     0.756120000000    -0.447026   
O190     O      0.303910000000     0.533670000000     0.751890000000    -0.446246   
O191     O      0.256750000000     0.534230000000     0.710010000000    -0.450064   
O192     O      0.260680000000     0.534370000000     0.799850000000    -0.445295   
O193     O      0.011600000000     0.052050000000     0.032790000000    -0.441453   
O194     O      0.505140000000     0.461860000000     0.029380000000    -0.447584   
O195     O      0.553560000000     0.003410000000     0.030490000000    -0.446556   
O196     O      0.963280000000     0.508560000000     0.031730000000    -0.43968    
O197     O      0.962830000000     0.007780000000     0.479360000000    -0.442217   
O198     O      0.553140000000     0.512350000000     0.478960000000    -0.446404   
O199     O      0.010880000000     0.463990000000     0.477420000000    -0.443782   
O200     O      0.505010000000     0.054200000000     0.480940000000    -0.448384   
O201     O      0.506040000000     0.461660000000     0.279300000000    -0.449778   
O202     O      0.005820000000     0.052010000000     0.283160000000    -0.444563   
O203     O      0.961710000000     0.505700000000     0.278880000000    -0.444625   
O204     O      0.552060000000     0.006050000000     0.283600000000    -0.444943   
O205     O      0.554940000000     0.510390000000     0.231510000000    -0.449547   
O206     O      0.964590000000     0.010020000000     0.226790000000    -0.439358   
O207     O      0.510600000000     0.054430000000     0.231090000000    -0.448908   
O208     O      0.010840000000     0.464070000000     0.227230000000    -0.444644   
O209     O      0.982030000000     0.212890000000     0.002940000000    -0.44341    
O210     O      0.981790000000     0.303130000000     0.506850000000    -0.442227   
O211     O      0.982730000000     0.259530000000     0.459990000000    -0.442551   
O212     O      0.981110000000     0.256480000000     0.049850000000    -0.440735   
O213     O      0.533400000000     0.261230000000     0.050400000000    -0.446111   
O214     O      0.535040000000     0.255000000000     0.460670000000    -0.445599   
O215     O      0.534120000000     0.303250000000     0.001580000000    -0.445561   
O216     O      0.534210000000     0.212960000000     0.509510000000    -0.444692   
O217     O      0.534230000000     0.303480000000     0.252510000000    -0.446509   
O218     O      0.534920000000     0.213070000000     0.254900000000    -0.447585   
O219     O      0.533640000000     0.257320000000     0.209700000000    -0.450634   
O220     O      0.535470000000     0.259210000000     0.299610000000    -0.444445   
O221     O      0.982960000000     0.259200000000     0.300730000000    -0.445355   
O222     O      0.981140000000     0.256490000000     0.210860000000    -0.439012   
O223     O      0.982410000000     0.212630000000     0.258260000000    -0.441144   
O224     O      0.981670000000     0.303030000000     0.255210000000    -0.441692   
O225     O      0.757370000000     0.034430000000     0.049870000000    -0.442873   
O226     O      0.759030000000     0.034170000000     0.459950000000    -0.448298   
O227     O      0.712990000000     0.034100000000     0.003240000000    -0.446285   
O228     O      0.803410000000     0.034560000000     0.504710000000    -0.445498   
O229     O      0.803660000000     0.482000000000     0.007330000000    -0.447664   
O230     O      0.713240000000     0.481530000000     0.505460000000    -0.447504   
O231     O      0.759450000000     0.481670000000     0.460510000000    -0.445314   
O232     O      0.757460000000     0.481920000000     0.050420000000    -0.449537   
O233     O      0.759920000000     0.481870000000     0.300370000000    -0.450135   
O234     O      0.755970000000     0.481730000000     0.210520000000    -0.445166   
O235     O      0.803130000000     0.481110000000     0.254240000000    -0.446927   
O236     O      0.712750000000     0.482420000000     0.258490000000    -0.446259   
O237     O      0.713520000000     0.034980000000     0.256120000000    -0.44511    
O238     O      0.803910000000     0.033670000000     0.251890000000    -0.444293   
O239     O      0.756750000000     0.034230000000     0.210010000000    -0.44805    
O240     O      0.760670000000     0.034370000000     0.299850000000    -0.443397   
O241     O      0.011600000000     0.052050000000     0.532790000000    -0.442743   
O242     O      0.505140000000     0.461860000000     0.529380000000    -0.449026   
O243     O      0.553560000000     0.003410000000     0.530490000000    -0.447922   
O244     O      0.963280000000     0.508560000000     0.531730000000    -0.441023   
O245     O      0.962830000000     0.007780000000     0.979360000000    -0.43819    
O246     O      0.553140000000     0.512350000000     0.978960000000    -0.442465   
O247     O      0.010880000000     0.463990000000     0.977420000000    -0.439783   
O248     O      0.505010000000     0.054200000000     0.980940000000    -0.444545   
O249     O      0.506040000000     0.461660000000     0.779300000000    -0.449724   
O250     O      0.005820000000     0.052010000000     0.783160000000    -0.444418   
O251     O      0.961710000000     0.505700000000     0.778880000000    -0.444519   
O252     O      0.552060000000     0.006050000000     0.783600000000    -0.444887   
O253     O      0.554940000000     0.510390000000     0.731510000000    -0.449522   
O254     O      0.964590000000     0.010020000000     0.726780000000    -0.439166   
O255     O      0.510600000000     0.054430000000     0.731090000000    -0.448877   
O256     O      0.010840000000     0.464070000000     0.727230000000    -0.444631   
O257     O      0.982030000000     0.212890000000     0.502940000000    -0.442465   
O258     O      0.981790000000     0.303130000000     0.006850000000    -0.442516   
O259     O      0.982730000000     0.259530000000     0.959990000000    -0.438973   
O260     O      0.981110000000     0.256480000000     0.549850000000    -0.441241   
O261     O      0.533400000000     0.261230000000     0.550400000000    -0.446714   
O262     O      0.535040000000     0.255000000000     0.960670000000    -0.442097   
O263     O      0.534120000000     0.303250000000     0.501580000000    -0.444648   
O264     O      0.534210000000     0.212960000000     0.009510000000    -0.44499    
O265     O      0.534230000000     0.303480000000     0.752510000000    -0.446459   
O266     O      0.534920000000     0.213070000000     0.754900000000    -0.447541   
O267     O      0.533640000000     0.257320000000     0.709700000000    -0.450615   
O268     O      0.535470000000     0.259210000000     0.799610000000    -0.44437    
O269     O      0.982960000000     0.259200000000     0.800730000000    -0.445298   
O270     O      0.981140000000     0.256490000000     0.710860000000    -0.438987   
O271     O      0.982410000000     0.212630000000     0.758260000000    -0.441109   
O272     O      0.981670000000     0.303030000000     0.755210000000    -0.441658   
O273     O      0.757370000000     0.034430000000     0.549870000000    -0.443451   
O274     O      0.759030000000     0.034170000000     0.959950000000    -0.444871   
O275     O      0.712990000000     0.034100000000     0.503240000000    -0.445434   
O276     O      0.803410000000     0.034560000000     0.004710000000    -0.446347   
O277     O      0.803660000000     0.482000000000     0.507330000000    -0.447333   
O278     O      0.713240000000     0.481530000000     0.005460000000    -0.447856   
O279     O      0.759450000000     0.481660000000     0.960510000000    -0.44162    
O280     O      0.757460000000     0.481930000000     0.550420000000    -0.450377   
O281     O      0.759920000000     0.481870000000     0.800370000000    -0.450065   
O282     O      0.755970000000     0.481730000000     0.710520000000    -0.445144   
O283     O      0.803130000000     0.481110000000     0.754240000000    -0.446888   
O284     O      0.712750000000     0.482420000000     0.758490000000    -0.446216   
O285     O      0.713520000000     0.034980000000     0.756120000000    -0.445064   
O286     O      0.803910000000     0.033670000000     0.751890000000    -0.444252   
O287     O      0.756750000000     0.034230000000     0.710010000000    -0.448024   
O288     O      0.760670000000     0.034370000000     0.799850000000    -0.443333   
O289     O      0.011600000000     0.552050000000     0.032790000000    -0.442325   
O290     O      0.505140000000     0.961860000000     0.029380000000    -0.442671   
O291     O      0.553560000000     0.503410000000     0.030490000000    -0.445183   
O292     O      0.963280000000     0.008560000000     0.031730000000    -0.440832   
O293     O      0.962830000000     0.507780000000     0.479360000000    -0.441486   
O294     O      0.553150000000     0.012350000000     0.478960000000    -0.446896   
O295     O      0.010880000000     0.963990000000     0.477420000000    -0.438751   
O296     O      0.505010000000     0.554200000000     0.480940000000    -0.449368   
O297     O      0.506040000000     0.961660000000     0.279300000000    -0.444883   
O298     O      0.005820000000     0.552010000000     0.283160000000    -0.445441   
O299     O      0.961710000000     0.005700000000     0.278880000000    -0.445792   
O300     O      0.552070000000     0.506050000000     0.283600000000    -0.443825   
O301     O      0.554940000000     0.010400000000     0.231510000000    -0.450011   
O302     O      0.964590000000     0.510020000000     0.226790000000    -0.438853   
O303     O      0.510600000000     0.554430000000     0.231090000000    -0.449897   
O304     O      0.010840000000     0.964070000000     0.227230000000    -0.439613   
O305     O      0.982030000000     0.712890000000     0.002940000000    -0.443427   
O306     O      0.981790000000     0.803130000000     0.506850000000    -0.442185   
O307     O      0.982730000000     0.759530000000     0.459990000000    -0.442547   
O308     O      0.981110000000     0.756480000000     0.049850000000    -0.440734   
O309     O      0.533400000000     0.761230000000     0.050390000000    -0.446147   
O310     O      0.535040000000     0.755000000000     0.460670000000    -0.445582   
O311     O      0.534120000000     0.803250000000     0.001580000000    -0.445516   
O312     O      0.534210000000     0.712960000000     0.509510000000    -0.444691   
O313     O      0.534230000000     0.803480000000     0.252510000000    -0.446428   
O314     O      0.534930000000     0.713070000000     0.254900000000    -0.447411   
O315     O      0.533640000000     0.757320000000     0.209700000000    -0.450615   
O316     O      0.535470000000     0.759210000000     0.299610000000    -0.444473   
O317     O      0.982970000000     0.759200000000     0.300730000000    -0.445518   
O318     O      0.981140000000     0.756490000000     0.210860000000    -0.43901    
O319     O      0.982410000000     0.712630000000     0.258260000000    -0.441071   
O320     O      0.981670000000     0.803030000000     0.255210000000    -0.441649   
O321     O      0.757370000000     0.534430000000     0.049870000000    -0.444648   
O322     O      0.759030000000     0.534170000000     0.459950000000    -0.450338   
O323     O      0.712990000000     0.534100000000     0.003240000000    -0.448262   
O324     O      0.803420000000     0.534560000000     0.504710000000    -0.447495   
O325     O      0.803660000000     0.982000000000     0.007330000000    -0.44202    
O326     O      0.713250000000     0.981530000000     0.505460000000    -0.441984   
O327     O      0.759450000000     0.981670000000     0.460510000000    -0.43969    
O328     O      0.757460000000     0.981930000000     0.050420000000    -0.444317   
O329     O      0.759920000000     0.981870000000     0.300370000000    -0.44483    
O330     O      0.755970000000     0.981730000000     0.210520000000    -0.439554   
O331     O      0.803130000000     0.981110000000     0.254240000000    -0.441505   
O332     O      0.712750000000     0.982420000000     0.258490000000    -0.440537   
O333     O      0.713520000000     0.534980000000     0.256120000000    -0.447108   
O334     O      0.803910000000     0.533670000000     0.251890000000    -0.446216   
O335     O      0.756750000000     0.534230000000     0.210010000000    -0.450074   
O336     O      0.760670000000     0.534370000000     0.299850000000    -0.44534    
O337     O      0.011600000000     0.552050000000     0.532790000000    -0.443621   
O338     O      0.505140000000     0.961860000000     0.529380000000    -0.444096   
O339     O      0.553560000000     0.503410000000     0.530490000000    -0.446553   
O340     O      0.963280000000     0.008560000000     0.531730000000    -0.442193   
O341     O      0.962830000000     0.507780000000     0.979360000000    -0.437569   
O342     O      0.553150000000     0.012350000000     0.978960000000    -0.442971   
O343     O      0.010880000000     0.963990000000     0.977420000000    -0.43479    
O344     O      0.505010000000     0.554200000000     0.980940000000    -0.44553    
O345     O      0.506040000000     0.961660000000     0.779300000000    -0.444944   
O346     O      0.005820000000     0.552010000000     0.783160000000    -0.445291   
O347     O      0.961710000000     0.005700000000     0.778880000000    -0.445689   
O348     O      0.552070000000     0.506050000000     0.783600000000    -0.443765   
O349     O      0.554940000000     0.010400000000     0.731510000000    -0.449987   
O350     O      0.964590000000     0.510020000000     0.726780000000    -0.438664   
O351     O      0.510600000000     0.554430000000     0.731090000000    -0.449873   
O352     O      0.010840000000     0.964070000000     0.727230000000    -0.439501   
O353     O      0.982030000000     0.712890000000     0.502940000000    -0.44248    
O354     O      0.981790000000     0.803130000000     0.006850000000    -0.442474   
O355     O      0.982730000000     0.759530000000     0.959990000000    -0.438971   
O356     O      0.981110000000     0.756480000000     0.549850000000    -0.441241   
O357     O      0.533400000000     0.761230000000     0.550400000000    -0.446685   
O358     O      0.535040000000     0.755000000000     0.960670000000    -0.442116   
O359     O      0.534120000000     0.803250000000     0.501580000000    -0.444581   
O360     O      0.534210000000     0.712960000000     0.009510000000    -0.445014   
O361     O      0.534230000000     0.803480000000     0.752510000000    -0.446378   
O362     O      0.534930000000     0.713070000000     0.754900000000    -0.447366   
O363     O      0.533640000000     0.757320000000     0.709700000000    -0.450596   
O364     O      0.535470000000     0.759210000000     0.799610000000    -0.444399   
O365     O      0.982970000000     0.759200000000     0.800730000000    -0.445462   
O366     O      0.981140000000     0.756490000000     0.710860000000    -0.438984   
O367     O      0.982410000000     0.712630000000     0.758260000000    -0.441036   
O368     O      0.981670000000     0.803030000000     0.755210000000    -0.441613   
O369     O      0.757370000000     0.534430000000     0.549870000000    -0.445304   
O370     O      0.759030000000     0.534170000000     0.959950000000    -0.446826   
O371     O      0.712990000000     0.534100000000     0.503240000000    -0.447418   
O372     O      0.803420000000     0.534560000000     0.004710000000    -0.448334   
O373     O      0.803660000000     0.982000000000     0.507330000000    -0.441657   
O374     O      0.713250000000     0.981530000000     0.005460000000    -0.442365   
O375     O      0.759450000000     0.981670000000     0.960510000000    -0.436208   
O376     O      0.757460000000     0.981930000000     0.550420000000    -0.444958   
O377     O      0.759920000000     0.981870000000     0.800370000000    -0.444767   
O378     O      0.755970000000     0.981730000000     0.710520000000    -0.43953    
O379     O      0.803130000000     0.981110000000     0.754240000000    -0.441468   
O380     O      0.712750000000     0.982420000000     0.758490000000    -0.440499   
O381     O      0.713520000000     0.534980000000     0.756120000000    -0.447061   
O382     O      0.803910000000     0.533670000000     0.751890000000    -0.446174   
O383     O      0.756750000000     0.534230000000     0.710010000000    -0.450048   
O384     O      0.760670000000     0.534370000000     0.799850000000    -0.445274   


