data_structure

_audit_creation_method RASPA-1.0
_audit_creation_date 2023-5-23
_audit_author_name 'Poobodin Mano'

_cell_length_a    42.4731
_cell_length_b    42.4742
_cell_length_c    42.598
_cell_angle_alpha 90
_cell_angle_beta  90
_cell_angle_gamma 90
_cell_volume      76847.3

_symmetry_cell_setting          triclinic
_symmetry_space_group_name_Hall 'P 1'
_symmetry_space_group_name_H-M  'P 1'
_symmetry_Int_Tables_number     1

_symmetry_equiv_pos_as_xyz 'x,y,z'

loop_
_atom_site_label
_atom_site_type_symbol
_atom_site_fract_x
_atom_site_fract_y
_atom_site_fract_z
_atom_site_charge
C1       C      0.380900000000     0.941400000000     0.006790000000     0.432569   
C2       C      0.381330000000     0.821180000000     0.507440000000     0.434693   
C3       C      0.382190000000     0.881690000000     0.066940000000     0.432516   
C4       C      0.379990000000     0.880720000000     0.446900000000     0.432145   
C5       C      0.380950000000     0.941370000000     0.258150000000     0.433298   
C6       C      0.381340000000     0.821170000000     0.255430000000     0.434423   
C7       C      0.380020000000     0.880110000000     0.316900000000     0.432057   
C8       C      0.382220000000     0.882260000000     0.196870000000     0.432907   
C9       C      0.380830000000     0.071690000000     0.010130000000     0.432749   
C10      C      0.381240000000     0.191910000000     0.011730000000     0.43407    
C11      C      0.380950000000     0.132470000000     0.451010000000     0.432396   
C12      C      0.381070000000     0.131330000000     0.071060000000     0.43247    
C13      C      0.380880000000     0.071670000000     0.260820000000     0.43301    
C14      C      0.381170000000     0.191890000000     0.261160000000     0.43459    
C15      C      0.380900000000     0.131880000000     0.201010000000     0.432506   
C16      C      0.381120000000     0.131900000000     0.321060000000     0.432677   
C17      C      0.941660000000     0.631810000000     0.999240000000     0.437439   
C18      C      0.821450000000     0.632220000000     0.498480000000     0.434934   
C19      C      0.881280000000     0.630810000000     0.058680000000     0.433348   
C20      C      0.881620000000     0.633100000000     0.438650000000     0.432509   
C21      C      0.941490000000     0.631940000000     0.249330000000     0.433059   
C22      C      0.821280000000     0.631590000000     0.248040000000     0.434645   
C23      C      0.880890000000     0.632960000000     0.308670000000     0.432314   
C24      C      0.881740000000     0.630680000000     0.188640000000     0.432706   
C25      C      0.071930000000     0.631690000000     0.003330000000     0.432277   
C26      C      0.192160000000     0.631630000000     0.003610000000     0.433694   
C27      C      0.132020000000     0.630560000000     0.443640000000     0.432807   
C28      C      0.132210000000     0.632810000000     0.063680000000     0.431839   
C29      C      0.071780000000     0.631870000000     0.252620000000     0.433034   
C30      C      0.191980000000     0.631510000000     0.254880000000     0.434736   
C31      C      0.132800000000     0.632820000000     0.193680000000     0.432131   
C32      C      0.131150000000     0.630570000000     0.313710000000     0.432734   
C33      C      0.631410000000     0.071790000000     0.011140000000     0.432232   
C34      C      0.630830000000     0.192020000000     0.512640000000     0.434651   
C35      C      0.631070000000     0.131550000000     0.072020000000     0.432472   
C36      C      0.631240000000     0.132470000000     0.451970000000     0.432402   
C37      C      0.631570000000     0.071820000000     0.261230000000     0.432994   
C38      C      0.630850000000     0.192070000000     0.262380000000     0.434361   
C39      C      0.631140000000     0.131740000000     0.322020000000     0.432646   
C40      C      0.631300000000     0.132350000000     0.201970000000     0.432715   
C41      C      0.631820000000     0.941540000000     0.006270000000     0.432142   
C42      C      0.632380000000     0.821340000000     0.003750000000     0.433871   
C43      C      0.632160000000     0.882130000000     0.444990000000     0.432637   
C44      C      0.631970000000     0.880520000000     0.065030000000     0.432228   
C45      C      0.631950000000     0.941560000000     0.255960000000     0.432657   
C46      C      0.632140000000     0.821310000000     0.254330000000     0.434338   
C47      C      0.632130000000     0.881720000000     0.195000000000     0.43242    
C48      C      0.631980000000     0.880950000000     0.315050000000     0.432707   
C49      C      0.381120000000     0.321290000000     0.510150000000     0.433512   
C50      C      0.380780000000     0.441360000000     0.506330000000     0.432049   
C51      C      0.320930000000     0.381100000000     0.005560000000     0.428377   
C52      C      0.440980000000     0.381530000000     0.010690000000     0.426732   
C53      C      0.381120000000     0.321270000000     0.259650000000     0.433829   
C54      C      0.380570000000     0.441370000000     0.256890000000     0.432143   
C55      C      0.320830000000     0.380950000000     0.256190000000     0.4339     
C56      C      0.440930000000     0.381550000000     0.259650000000     0.432236   
C57      C      0.381630000000     0.691790000000     0.007200000000     0.428814   
C58      C      0.381440000000     0.571680000000     0.005220000000     0.427476   
C59      C      0.321550000000     0.631800000000     0.504910000000     0.433791   
C60      C      0.441680000000     0.631770000000     0.507260000000     0.431919   
C61      C      0.381460000000     0.691800000000     0.253780000000     0.433714   
C62      C      0.381260000000     0.571670000000     0.255260000000     0.432142   
C63      C      0.321360000000     0.631650000000     0.255630000000     0.434164   
C64      C      0.441480000000     0.631900000000     0.253460000000     0.432148   
C65      C      0.691420000000     0.380920000000     0.506910000000     0.433466   
C66      C      0.571340000000     0.381860000000     0.511460000000     0.432026   
C67      C      0.630950000000     0.321420000000     0.011230000000     0.42855    
C68      C      0.631920000000     0.441510000000     0.007770000000     0.427275   
C69      C      0.691290000000     0.381300000000     0.252800000000     0.433644   
C70      C      0.571270000000     0.381550000000     0.258020000000     0.432043   
C71      C      0.631160000000     0.321440000000     0.258560000000     0.433274   
C72      C      0.631380000000     0.441440000000     0.252310000000     0.431732   
C73      C      0.632390000000     0.692030000000     0.502760000000     0.434622   
C74      C      0.632230000000     0.571810000000     0.505120000000     0.432655   
C75      C      0.692190000000     0.632040000000     0.001620000000     0.429771   
C76      C      0.572030000000     0.632050000000     0.006090000000     0.427994   
C77      C      0.632300000000     0.691930000000     0.251300000000     0.433622   
C78      C      0.631510000000     0.571780000000     0.249350000000     0.432023   
C79      C      0.691890000000     0.631500000000     0.248690000000     0.433855   
C80      C      0.571780000000     0.632290000000     0.251400000000     0.432154   
C81      C      0.071320000000     0.380920000000     0.000470000000     0.427204   
C82      C      0.191570000000     0.381250000000     0.501240000000     0.434343   
C83      C      0.131350000000     0.380980000000     0.060880000000     0.43186    
C84      C      0.131740000000     0.381140000000     0.440830000000     0.432713   
C85      C      0.071280000000     0.380890000000     0.250510000000     0.433113   
C86      C      0.191510000000     0.381160000000     0.251520000000     0.434395   
C87      C      0.131200000000     0.380940000000     0.310900000000     0.43249    
C88      C      0.131820000000     0.381120000000     0.190850000000     0.432488   
C89      C      0.940960000000     0.380920000000     0.999480000000     0.437747   
C90      C      0.820710000000     0.381210000000     0.000990000000     0.429554   
C91      C      0.880110000000     0.381160000000     0.440000000000     0.432335   
C92      C      0.881330000000     0.380980000000     0.060050000000     0.432846   
C93      C      0.940930000000     0.380930000000     0.250270000000     0.433109   
C94      C      0.820680000000     0.381380000000     0.249690000000     0.43443    
C95      C      0.881050000000     0.381190000000     0.189970000000     0.43267    
C96      C      0.880360000000     0.381040000000     0.310020000000     0.432494   
C97      C      0.879900000000     0.353380000000     0.391430000000     0.0313256  
C98      C      0.879960000000     0.408910000000     0.391380000000     0.0312465  
C99      C      0.880160000000     0.408830000000     0.358600000000     0.0314292  
C100     C      0.879870000000     0.353310000000     0.358640000000     0.0313436  
C101     C      0.881540000000     0.408800000000     0.108580000000     0.0313054  
C102     C      0.881210000000     0.353270000000     0.108660000000     0.0313119  
C103     C      0.881220000000     0.353370000000     0.141440000000     0.0313484  
C104     C      0.881320000000     0.408900000000     0.141360000000     0.0313914  
C105     C      0.989680000000     0.408610000000     0.249420000000     0.0316395  
C106     C      0.989650000000     0.353110000000     0.251280000000     0.0314893  
C107     C      0.022540000000     0.353110000000     0.251310000000     0.0317102  
C108     C      0.022550000000     0.408600000000     0.249460000000     0.031619   
C109     C      0.131580000000     0.408850000000     0.392210000000     0.0315322  
C110     C      0.131650000000     0.353330000000     0.392290000000     0.0314529  
C111     C      0.131560000000     0.353230000000     0.359510000000     0.0313638  
C112     C      0.131270000000     0.408760000000     0.359430000000     0.0314429  
C113     C      0.131720000000     0.353250000000     0.109500000000     0.0311539  
C114     C      0.131450000000     0.408780000000     0.109440000000     0.0311884  
C115     C      0.131740000000     0.408850000000     0.142230000000     0.031341   
C116     C      0.131780000000     0.353330000000     0.142280000000     0.0313261  
C117     C      0.022580000000     0.408620000000     0.999010000000     0.0358362  
C118     C      0.022580000000     0.353130000000     0.500870000000     0.0316253  
C119     C      0.989680000000     0.353130000000     0.500560000000     0.0316407  
C120     C      0.989710000000     0.408620000000     0.998700000000     0.0313874  
C121     C      0.740030000000     0.401800000000     0.270140000000     0.0332216  
C122     C      0.739070000000     0.361500000000     0.231910000000     0.0327972  
C123     C      0.771970000000     0.360390000000     0.232380000000     0.033281   
C124     C      0.772800000000     0.402870000000     0.268200000000     0.0332082  
C125     C      0.629750000000     0.490850000000     0.278230000000     0.0312816  
C126     C      0.632950000000     0.489460000000     0.222980000000     0.0314112  
C127     C      0.632990000000     0.522460000000     0.222210000000     0.0313906  
C128     C      0.629760000000     0.523590000000     0.277460000000     0.031448   
C129     C      0.740510000000     0.400880000000     0.024060000000     0.0323547  
C130     C      0.738790000000     0.361170000000     0.485220000000     0.0327798  
C131     C      0.771670000000     0.360200000000     0.484820000000     0.033304   
C132     C      0.773250000000     0.402150000000     0.021250000000     0.0324453  
C133     C      0.632450000000     0.489640000000     0.479020000000     0.0315188  
C134     C      0.631930000000     0.490800000000     0.034370000000     0.0308755  
C135     C      0.632120000000     0.523650000000     0.033750000000     0.0308083  
C136     C      0.632400000000     0.522530000000     0.478390000000     0.0312815  
C137     C      0.489750000000     0.632280000000     0.225020000000     0.0314755  
C138     C      0.490640000000     0.632150000000     0.280380000000     0.0314786  
C139     C      0.523520000000     0.632470000000     0.279910000000     0.0314281  
C140     C      0.522620000000     0.632230000000     0.224550000000     0.031546   
C141     C      0.490230000000     0.630370000000     0.979700000000     0.0343014  
C142     C      0.490610000000     0.633370000000     0.534980000000     0.0314046  
C143     C      0.523600000000     0.633400000000     0.534680000000     0.0315982  
C144     C      0.522990000000     0.630500000000     0.979400000000     0.0343061  
C145     C      0.271900000000     0.400820000000     0.273880000000     0.033168   
C146     C      0.273270000000     0.361260000000     0.234890000000     0.0328819  
C147     C      0.240400000000     0.360250000000     0.234820000000     0.0332319  
C148     C      0.239140000000     0.402060000000     0.271410000000     0.033309   
C149     C      0.489950000000     0.380140000000     0.287330000000     0.0313726  
C150     C      0.489390000000     0.383180000000     0.232050000000     0.0314825  
C151     C      0.522130000000     0.383150000000     0.231610000000     0.0313513  
C152     C      0.522960000000     0.380170000000     0.286890000000     0.0313851  
C153     C      0.380640000000     0.489720000000     0.228490000000     0.0314528  
C154     C      0.380670000000     0.490440000000     0.283850000000     0.0315515  
C155     C      0.380730000000     0.523300000000     0.283490000000     0.0315366  
C156     C      0.381020000000     0.522610000000     0.228130000000     0.0313854  
C157     C      0.272030000000     0.401260000000     0.022930000000     0.032452   
C158     C      0.273330000000     0.361430000000     0.484210000000     0.0327966  
C159     C      0.240430000000     0.360350000000     0.484320000000     0.0333548  
C160     C      0.239270000000     0.402410000000     0.020620000000     0.0325359  
C161     C      0.489480000000     0.380060000000     0.039290000000     0.0307556  
C162     C      0.489950000000     0.383570000000     0.484050000000     0.031364   
C163     C      0.522680000000     0.383680000000     0.484260000000     0.0314624  
C164     C      0.522510000000     0.380170000000     0.039510000000     0.0306003  
C165     C      0.379300000000     0.489800000000     0.477840000000     0.0314511  
C166     C      0.382640000000     0.490350000000     0.033100000000     0.0307159  
C167     C      0.382870000000     0.523130000000     0.032810000000     0.0307748  
C168     C      0.379470000000     0.522770000000     0.477560000000     0.0315532  
C169     C      0.612520000000     0.740640000000     0.232920000000     0.0330658  
C170     C      0.652070000000     0.739760000000     0.271930000000     0.032947   
C171     C      0.653130000000     0.772640000000     0.271530000000     0.0332212  
C172     C      0.611320000000     0.773440000000     0.234930000000     0.0333134  
C173     C      0.653120000000     0.772950000000     0.021680000000     0.0327988  
C174     C      0.612410000000     0.773240000000     0.483840000000     0.0334224  
C175     C      0.613730000000     0.740380000000     0.482240000000     0.0336293  
C176     C      0.652060000000     0.740130000000     0.022470000000     0.032939   
C177     C      0.659870000000     0.881770000000     0.396370000000     0.031397   
C178     C      0.604340000000     0.881790000000     0.396440000000     0.0313174  
C179     C      0.604260000000     0.881230000000     0.363670000000     0.0314181  
C180     C      0.659780000000     0.881440000000     0.363600000000     0.0314779  
C181     C      0.659760000000     0.880880000000     0.113600000000     0.0312852  
C182     C      0.604230000000     0.880600000000     0.113650000000     0.0313434  
C183     C      0.604310000000     0.881160000000     0.146440000000     0.0313639  
C184     C      0.659840000000     0.881200000000     0.146380000000     0.0313088  
C185     C      0.609400000000     0.239880000000     0.243650000000     0.0332921  
C186     C      0.651750000000     0.240850000000     0.279620000000     0.0332316  
C187     C      0.650700000000     0.273750000000     0.279890000000     0.0328355  
C188     C      0.610540000000     0.272650000000     0.241510000000     0.0330993  
C189     C      0.604010000000     0.022990000000     0.260320000000     0.0316451  
C190     C      0.659500000000     0.023230000000     0.258460000000     0.0315994  
C191     C      0.659590000000     0.990380000000     0.256940000000     0.0316186  
C192     C      0.604100000000     0.990150000000     0.258800000000     0.031612   
C193     C      0.651640000000     0.240490000000     0.030750000000     0.0327242  
C194     C      0.609460000000     0.240130000000     0.494570000000     0.0333317  
C195     C      0.610530000000     0.272940000000     0.493070000000     0.033178   
C196     C      0.650510000000     0.273370000000     0.031660000000     0.0319604  
C197     C      0.658990000000     0.132550000000     0.403370000000     0.0314284  
C198     C      0.603470000000     0.132130000000     0.403410000000     0.0314624  
C199     C      0.603400000000     0.131970000000     0.370620000000     0.0314247  
C200     C      0.658930000000     0.132160000000     0.370590000000     0.0313075  
C201     C      0.603380000000     0.131760000000     0.120650000000     0.0314487  
C202     C      0.658900000000     0.131930000000     0.120560000000     0.0313848  
C203     C      0.659000000000     0.132330000000     0.153340000000     0.0313439  
C204     C      0.603470000000     0.131940000000     0.153430000000     0.0313045  
C205     C      0.603820000000     0.022960000000     0.010420000000     0.0312586  
C206     C      0.659320000000     0.023210000000     0.508540000000     0.0315683  
C207     C      0.659410000000     0.990360000000     0.507160000000     0.0316758  
C208     C      0.603920000000     0.990110000000     0.009050000000     0.0313526  
C209     C      0.240390000000     0.610530000000     0.237210000000     0.0333357  
C210     C      0.240120000000     0.651940000000     0.274270000000     0.0333363  
C211     C      0.272980000000     0.650740000000     0.275780000000     0.0328578  
C212     C      0.273200000000     0.611600000000     0.236340000000     0.0333047  
C213     C      0.240600000000     0.652260000000     0.485290000000     0.0333533  
C214     C      0.240280000000     0.610840000000     0.022340000000     0.0327804  
C215     C      0.273100000000     0.611980000000     0.023810000000     0.0324769  
C216     C      0.273470000000     0.651130000000     0.484380000000     0.0328808  
C217     C      0.132870000000     0.602470000000     0.395090000000     0.0315737  
C218     C      0.130240000000     0.657930000000     0.395030000000     0.0312968  
C219     C      0.129930000000     0.657930000000     0.362330000000     0.0314138  
C220     C      0.132560000000     0.602470000000     0.362240000000     0.0314919  
C221     C      0.131260000000     0.605440000000     0.112330000000     0.0310976  
C222     C      0.133930000000     0.660900000000     0.112230000000     0.0313149  
C223     C      0.134160000000     0.660900000000     0.145110000000     0.0313057  
C224     C      0.131480000000     0.605450000000     0.145040000000     0.0313012  
C225     C      0.740020000000     0.650770000000     0.228180000000     0.0328275  
C226     C      0.740290000000     0.611610000000     0.267600000000     0.0332663  
C227     C      0.773100000000     0.610590000000     0.266350000000     0.0333023  
C228     C      0.772890000000     0.652010000000     0.229300000000     0.0333615  
C229     C      0.990200000000     0.604200000000     0.250410000000     0.0317235  
C230     C      0.990220000000     0.659720000000     0.250480000000     0.0316398  
C231     C      0.023090000000     0.659700000000     0.251320000000     0.0316386  
C232     C      0.023050000000     0.604170000000     0.251380000000     0.0315495  
C233     C      0.772770000000     0.612540000000     0.479810000000     0.0336036  
C234     C      0.773670000000     0.652270000000     0.018660000000     0.0293947  
C235     C      0.740890000000     0.651030000000     0.020610000000     0.0339817  
C236     C      0.739890000000     0.613750000000     0.479410000000     0.0336026  
C237     C      0.880000000000     0.661150000000     0.390070000000     0.0313314  
C238     C      0.882660000000     0.605690000000     0.390030000000     0.0312954  
C239     C      0.882400000000     0.605650000000     0.357330000000     0.0313101  
C240     C      0.879730000000     0.661100000000     0.357200000000     0.0314956  
C241     C      0.880080000000     0.602670000000     0.107210000000     0.0313233  
C242     C      0.882840000000     0.658120000000     0.107330000000     0.0312447  
C243     C      0.883010000000     0.658090000000     0.140030000000     0.0310603  
C244     C      0.880270000000     0.602630000000     0.140070000000     0.0314259  
C245     C      0.990390000000     0.659510000000     0.000680000000     0.0312245  
C246     C      0.990340000000     0.603980000000     0.500790000000     0.0316127  
C247     C      0.023200000000     0.603960000000     0.501930000000     0.0317144  
C248     C      0.023240000000     0.659480000000     0.001960000000     0.0311202  
C249     C      0.360370000000     0.240370000000     0.279170000000     0.033362   
C250     C      0.402340000000     0.239960000000     0.242750000000     0.0333756  
C251     C      0.401270000000     0.272770000000     0.241220000000     0.0331899  
C252     C      0.361530000000     0.273240000000     0.280060000000     0.0327904  
C253     C      0.360320000000     0.240390000000     0.029690000000     0.0327622  
C254     C      0.402650000000     0.239990000000     0.493670000000     0.033289   
C255     C      0.401580000000     0.272790000000     0.492130000000     0.0332254  
C256     C      0.361450000000     0.273270000000     0.030570000000     0.0319217  
C257     C      0.408850000000     0.132230000000     0.369680000000     0.0313122  
C258     C      0.353320000000     0.132300000000     0.369620000000     0.0313857  
C259     C      0.353240000000     0.132620000000     0.402390000000     0.0313695  
C260     C      0.408760000000     0.132320000000     0.402460000000     0.0314991  
C261     C      0.353250000000     0.131450000000     0.119610000000     0.0313658  
C262     C      0.408770000000     0.131450000000     0.119680000000     0.031473   
C263     C      0.408690000000     0.131540000000     0.152460000000     0.0313674  
C264     C      0.353160000000     0.131760000000     0.152390000000     0.0312617  
C265     C      0.402450000000     0.772680000000     0.272710000000     0.0333306  
C266     C      0.360920000000     0.773130000000     0.235780000000     0.033275   
C267     C      0.362200000000     0.740280000000     0.234020000000     0.0328276  
C268     C      0.401470000000     0.739860000000     0.273330000000     0.0333015  
C269     C      0.353120000000     0.990060000000     0.259270000000     0.0316392  
C270     C      0.408650000000     0.990090000000     0.259380000000     0.0317448  
C271     C      0.408630000000     0.022950000000     0.260190000000     0.031638   
C272     C      0.353100000000     0.022940000000     0.259930000000     0.031609   
C273     C      0.360890000000     0.772830000000     0.026210000000     0.0327546  
C274     C      0.402360000000     0.772990000000     0.489210000000     0.0333945  
C275     C      0.401380000000     0.740160000000     0.488050000000     0.0332585  
C276     C      0.362170000000     0.739960000000     0.027420000000     0.0321214  
C277     C      0.407380000000     0.881570000000     0.398260000000     0.031286   
C278     C      0.351920000000     0.878830000000     0.398340000000     0.0312887  
C279     C      0.351930000000     0.878610000000     0.365470000000     0.0313651  
C280     C      0.407390000000     0.881340000000     0.365550000000     0.0311757  
C281     C      0.410300000000     0.881070000000     0.148330000000     0.0315525  
C282     C      0.354840000000     0.883720000000     0.148260000000     0.0313333  
C283     C      0.354830000000     0.883510000000     0.115560000000     0.0312806  
C284     C      0.410290000000     0.880860000000     0.115480000000     0.0314875  
C285     C      0.353080000000     0.990120000000     0.006920000000     0.0313338  
C286     C      0.408580000000     0.990120000000     0.508570000000     0.0316771  
C287     C      0.408560000000     0.022970000000     0.509560000000     0.0316734  
C288     C      0.353050000000     0.022990000000     0.007890000000     0.0311656  
C289     C      0.380900000000     0.941400000000     0.506790000000     0.43316    
C290     C      0.381330000000     0.821180000000     0.007440000000     0.434073   
C291     C      0.382190000000     0.881690000000     0.566940000000     0.432785   
C292     C      0.379990000000     0.880720000000     0.946900000000     0.431691   
C293     C      0.380950000000     0.941370000000     0.758150000000     0.433323   
C294     C      0.381340000000     0.821170000000     0.755430000000     0.434554   
C295     C      0.380020000000     0.880120000000     0.816900000000     0.432121   
C296     C      0.382220000000     0.882260000000     0.696870000000     0.432901   
C297     C      0.380830000000     0.071690000000     0.510130000000     0.433329   
C298     C      0.381240000000     0.191910000000     0.511740000000     0.434683   
C299     C      0.380950000000     0.132470000000     0.951010000000     0.431949   
C300     C      0.381070000000     0.131330000000     0.571060000000     0.432815   
C301     C      0.380880000000     0.071670000000     0.760820000000     0.432985   
C302     C      0.381170000000     0.191890000000     0.761160000000     0.434632   
C303     C      0.380900000000     0.131880000000     0.701010000000     0.432421   
C304     C      0.381120000000     0.131900000000     0.821060000000     0.432791   
C305     C      0.941660000000     0.631810000000     0.499230000000     0.433191   
C306     C      0.821450000000     0.632220000000     0.998480000000     0.44059    
C307     C      0.881280000000     0.630810000000     0.558680000000     0.432518   
C308     C      0.881620000000     0.633100000000     0.938650000000     0.433187   
C309     C      0.941490000000     0.631940000000     0.749330000000     0.433141   
C310     C      0.821280000000     0.631590000000     0.748040000000     0.434768   
C311     C      0.880890000000     0.632960000000     0.808670000000     0.432345   
C312     C      0.881740000000     0.630680000000     0.688640000000     0.432716   
C313     C      0.071930000000     0.631690000000     0.503330000000     0.432905   
C314     C      0.192160000000     0.631630000000     0.503610000000     0.434351   
C315     C      0.132020000000     0.630560000000     0.943640000000     0.432274   
C316     C      0.132210000000     0.632810000000     0.563670000000     0.432339   
C317     C      0.071780000000     0.631870000000     0.752620000000     0.433064   
C318     C      0.191980000000     0.631510000000     0.754880000000     0.434742   
C319     C      0.132800000000     0.632820000000     0.693680000000     0.432133   
C320     C      0.131150000000     0.630570000000     0.813710000000     0.432789   
C321     C      0.631410000000     0.071790000000     0.511140000000     0.433028   
C322     C      0.630830000000     0.192020000000     0.012640000000     0.434008   
C323     C      0.631070000000     0.131550000000     0.572020000000     0.432708   
C324     C      0.631240000000     0.132470000000     0.951970000000     0.431931   
C325     C      0.631570000000     0.071820000000     0.761230000000     0.433005   
C326     C      0.630850000000     0.192070000000     0.762380000000     0.434357   
C327     C      0.631140000000     0.131740000000     0.822020000000     0.432703   
C328     C      0.631300000000     0.132350000000     0.701970000000     0.432774   
C329     C      0.631820000000     0.941540000000     0.506270000000     0.432727   
C330     C      0.632380000000     0.821340000000     0.503750000000     0.434479   
C331     C      0.632160000000     0.882130000000     0.944990000000     0.432182   
C332     C      0.631970000000     0.880520000000     0.565030000000     0.432514   
C333     C      0.631950000000     0.941560000000     0.755960000000     0.43268    
C334     C      0.632140000000     0.821310000000     0.754330000000     0.434344   
C335     C      0.632130000000     0.881720000000     0.695000000000     0.432414   
C336     C      0.631980000000     0.880950000000     0.815060000000     0.432677   
C337     C      0.381120000000     0.321290000000     0.010150000000     0.428508   
C338     C      0.380780000000     0.441360000000     0.006330000000     0.427142   
C339     C      0.320930000000     0.381100000000     0.505560000000     0.433333   
C340     C      0.440980000000     0.381530000000     0.510690000000     0.431947   
C341     C      0.381110000000     0.321270000000     0.759650000000     0.433884   
C342     C      0.380570000000     0.441370000000     0.756880000000     0.432136   
C343     C      0.320830000000     0.380950000000     0.756190000000     0.433897   
C344     C      0.440930000000     0.381550000000     0.759650000000     0.43226    
C345     C      0.381630000000     0.691790000000     0.507200000000     0.43381    
C346     C      0.381440000000     0.571680000000     0.505230000000     0.432397   
C347     C      0.321550000000     0.631800000000     0.004910000000     0.42884    
C348     C      0.441680000000     0.631770000000     0.007260000000     0.426845   
C349     C      0.381460000000     0.691800000000     0.753780000000     0.433712   
C350     C      0.381260000000     0.571670000000     0.755260000000     0.432133   
C351     C      0.321360000000     0.631650000000     0.755630000000     0.43412    
C352     C      0.441480000000     0.631910000000     0.753460000000     0.432134   
C353     C      0.691420000000     0.380920000000     0.006910000000     0.428517   
C354     C      0.571340000000     0.381860000000     0.011460000000     0.427024   
C355     C      0.630950000000     0.321420000000     0.511230000000     0.433541   
C356     C      0.631920000000     0.441510000000     0.507770000000     0.432172   
C357     C      0.691290000000     0.381300000000     0.752800000000     0.43364    
C358     C      0.571270000000     0.381550000000     0.758020000000     0.432034   
C359     C      0.631160000000     0.321440000000     0.758560000000     0.43353    
C360     C      0.631380000000     0.441440000000     0.752310000000     0.431726   
C361     C      0.632390000000     0.692030000000     0.002760000000     0.429649   
C362     C      0.632230000000     0.571810000000     0.005120000000     0.427672   
C363     C      0.692180000000     0.632040000000     0.501620000000     0.434721   
C364     C      0.572030000000     0.632050000000     0.506090000000     0.433007   
C365     C      0.632300000000     0.691930000000     0.751300000000     0.433614   
C366     C      0.631510000000     0.571780000000     0.749350000000     0.432012   
C367     C      0.691890000000     0.631500000000     0.748680000000     0.433849   
C368     C      0.571780000000     0.632300000000     0.751400000000     0.432164   
C369     C      0.071320000000     0.380920000000     0.500470000000     0.43299    
C370     C      0.191570000000     0.381250000000     0.001240000000     0.428467   
C371     C      0.131350000000     0.380980000000     0.560880000000     0.43251    
C372     C      0.131740000000     0.381140000000     0.940830000000     0.432092   
C373     C      0.071280000000     0.380890000000     0.750510000000     0.433173   
C374     C      0.191510000000     0.381160000000     0.751510000000     0.4347     
C375     C      0.131200000000     0.380940000000     0.810900000000     0.432578   
C376     C      0.131810000000     0.381120000000     0.690850000000     0.432545   
C377     C      0.940960000000     0.380920000000     0.499480000000     0.432824   
C378     C      0.820710000000     0.381210000000     0.500990000000     0.434544   
C379     C      0.880110000000     0.381160000000     0.940000000000     0.432251   
C380     C      0.881330000000     0.380980000000     0.560050000000     0.432736   
C381     C      0.940930000000     0.380930000000     0.750270000000     0.433141   
C382     C      0.820680000000     0.381380000000     0.749690000000     0.434437   
C383     C      0.881050000000     0.381190000000     0.689970000000     0.432692   
C384     C      0.880360000000     0.381040000000     0.810020000000     0.432522   
C385     C      0.879900000000     0.353380000000     0.891430000000     0.0315385  
C386     C      0.879960000000     0.408910000000     0.891390000000     0.031441   
C387     C      0.880160000000     0.408840000000     0.858600000000     0.0314361  
C388     C      0.879870000000     0.353310000000     0.858640000000     0.0314319  
C389     C      0.881540000000     0.408800000000     0.608580000000     0.0314689  
C390     C      0.881210000000     0.353270000000     0.608660000000     0.0314008  
C391     C      0.881220000000     0.353370000000     0.641440000000     0.0314644  
C392     C      0.881320000000     0.408900000000     0.641360000000     0.0314532  
C393     C      0.989680000000     0.408610000000     0.749430000000     0.0316522  
C394     C      0.989650000000     0.353120000000     0.751280000000     0.0316858  
C395     C      0.022540000000     0.353110000000     0.751310000000     0.0316569  
C396     C      0.022550000000     0.408600000000     0.749460000000     0.0317555  
C397     C      0.131580000000     0.408860000000     0.892210000000     0.0315673  
C398     C      0.131650000000     0.353330000000     0.892290000000     0.0315559  
C399     C      0.131560000000     0.353240000000     0.859510000000     0.0316423  
C400     C      0.131270000000     0.408760000000     0.859440000000     0.0316244  
C401     C      0.131720000000     0.353250000000     0.609500000000     0.0312869  
C402     C      0.131450000000     0.408780000000     0.609440000000     0.0313113  
C403     C      0.131740000000     0.408850000000     0.642230000000     0.0313766  
C404     C      0.131780000000     0.353330000000     0.642280000000     0.0313778  
C405     C      0.022580000000     0.408620000000     0.499010000000     0.0316337  
C406     C      0.022580000000     0.353130000000     0.000870000000     0.0318532  
C407     C      0.989690000000     0.353130000000     0.000560000000     0.0275847  
C408     C      0.989710000000     0.408620000000     0.498700000000     0.031655   
C409     C      0.740030000000     0.401810000000     0.770140000000     0.0331523  
C410     C      0.739070000000     0.361500000000     0.731910000000     0.032814   
C411     C      0.771970000000     0.360390000000     0.732380000000     0.033314   
C412     C      0.772800000000     0.402870000000     0.768200000000     0.0332934  
C413     C      0.629750000000     0.490850000000     0.778230000000     0.031313   
C414     C      0.632950000000     0.489460000000     0.722980000000     0.0314029  
C415     C      0.632990000000     0.522470000000     0.722210000000     0.0314213  
C416     C      0.629760000000     0.523590000000     0.777460000000     0.0314405  
C417     C      0.740510000000     0.400880000000     0.524060000000     0.0331353  
C418     C      0.738790000000     0.361170000000     0.985220000000     0.0358227  
C419     C      0.771670000000     0.360200000000     0.984820000000     0.0362846  
C420     C      0.773250000000     0.402150000000     0.521250000000     0.0332325  
C421     C      0.632450000000     0.489640000000     0.979020000000     0.0344662  
C422     C      0.631930000000     0.490800000000     0.534370000000     0.0314922  
C423     C      0.632120000000     0.523650000000     0.533750000000     0.0315584  
C424     C      0.632400000000     0.522530000000     0.978390000000     0.0343009  
C425     C      0.489750000000     0.632280000000     0.725020000000     0.0314712  
C426     C      0.490640000000     0.632150000000     0.780380000000     0.0314815  
C427     C      0.523520000000     0.632470000000     0.779910000000     0.0314324  
C428     C      0.522620000000     0.632230000000     0.724550000000     0.0315432  
C429     C      0.490230000000     0.630370000000     0.479700000000     0.0313626  
C430     C      0.490610000000     0.633370000000     0.034980000000     0.0307294  
C431     C      0.523600000000     0.633400000000     0.034680000000     0.0309171  
C432     C      0.522990000000     0.630500000000     0.479400000000     0.0313398  
C433     C      0.271900000000     0.400820000000     0.773880000000     0.0332013  
C434     C      0.273270000000     0.361260000000     0.734880000000     0.0328016  
C435     C      0.240400000000     0.360250000000     0.734820000000     0.033305   
C436     C      0.239140000000     0.402060000000     0.771410000000     0.0333523  
C437     C      0.489950000000     0.380140000000     0.787320000000     0.0314894  
C438     C      0.489390000000     0.383180000000     0.732050000000     0.0314865  
C439     C      0.522130000000     0.383150000000     0.731610000000     0.0313387  
C440     C      0.522960000000     0.380170000000     0.786890000000     0.031331   
C441     C      0.380640000000     0.489720000000     0.728490000000     0.0314313  
C442     C      0.380670000000     0.490440000000     0.783850000000     0.031576   
C443     C      0.380730000000     0.523300000000     0.783490000000     0.0315409  
C444     C      0.381020000000     0.522610000000     0.728130000000     0.0313855  
C445     C      0.272030000000     0.401260000000     0.522930000000     0.033143   
C446     C      0.273330000000     0.361430000000     0.984210000000     0.0358529  
C447     C      0.240430000000     0.360350000000     0.984320000000     0.0363211  
C448     C      0.239270000000     0.402410000000     0.520620000000     0.0333     
C449     C      0.489480000000     0.380060000000     0.539290000000     0.0314486  
C450     C      0.489950000000     0.383570000000     0.984050000000     0.0343078  
C451     C      0.522680000000     0.383680000000     0.984260000000     0.0344158  
C452     C      0.522510000000     0.380170000000     0.539510000000     0.0312751  
C453     C      0.379300000000     0.489800000000     0.977840000000     0.0345447  
C454     C      0.382640000000     0.490350000000     0.533100000000     0.0313377  
C455     C      0.382870000000     0.523130000000     0.532810000000     0.0313952  
C456     C      0.379470000000     0.522770000000     0.977550000000     0.0344148  
C457     C      0.612520000000     0.740640000000     0.732920000000     0.0330594  
C458     C      0.652070000000     0.739760000000     0.771930000000     0.0329783  
C459     C      0.653130000000     0.772640000000     0.771530000000     0.033255   
C460     C      0.611320000000     0.773440000000     0.734930000000     0.0333356  
C461     C      0.653120000000     0.772950000000     0.521670000000     0.033433   
C462     C      0.612410000000     0.773240000000     0.983840000000     0.0368227  
C463     C      0.613730000000     0.740380000000     0.982240000000     0.0365325  
C464     C      0.652060000000     0.740130000000     0.522480000000     0.0335819  
C465     C      0.659870000000     0.881770000000     0.896370000000     0.0316471  
C466     C      0.604340000000     0.881790000000     0.896440000000     0.0315092  
C467     C      0.604260000000     0.881230000000     0.863670000000     0.03162    
C468     C      0.659780000000     0.881450000000     0.863600000000     0.031685   
C469     C      0.659760000000     0.880890000000     0.613600000000     0.031327   
C470     C      0.604230000000     0.880600000000     0.613650000000     0.031377   
C471     C      0.604310000000     0.881160000000     0.646440000000     0.0313748  
C472     C      0.659840000000     0.881200000000     0.646380000000     0.0313317  
C473     C      0.609400000000     0.239880000000     0.743650000000     0.0333027  
C474     C      0.651750000000     0.240850000000     0.779620000000     0.0332561  
C475     C      0.650700000000     0.273750000000     0.779890000000     0.0328794  
C476     C      0.610540000000     0.272650000000     0.741510000000     0.0331223  
C477     C      0.604010000000     0.022990000000     0.760320000000     0.0317046  
C478     C      0.659500000000     0.023240000000     0.758460000000     0.0317071  
C479     C      0.659590000000     0.990380000000     0.756940000000     0.0316778  
C480     C      0.604100000000     0.990150000000     0.758800000000     0.0316639  
C481     C      0.651640000000     0.240490000000     0.530750000000     0.0332751  
C482     C      0.609460000000     0.240130000000     0.994570000000     0.0367608  
C483     C      0.610530000000     0.272940000000     0.993070000000     0.0360809  
C484     C      0.650510000000     0.273370000000     0.531660000000     0.0327639  
C485     C      0.658990000000     0.132550000000     0.903370000000     0.0316862  
C486     C      0.603470000000     0.132130000000     0.903410000000     0.0316947  
C487     C      0.603400000000     0.131970000000     0.870620000000     0.0316056  
C488     C      0.658930000000     0.132160000000     0.870590000000     0.0315011  
C489     C      0.603380000000     0.131760000000     0.620650000000     0.0314833  
C490     C      0.658900000000     0.131930000000     0.620560000000     0.0314209  
C491     C      0.659000000000     0.132340000000     0.653340000000     0.0313805  
C492     C      0.603470000000     0.131940000000     0.653430000000     0.0313156  
C493     C      0.603820000000     0.022960000000     0.510420000000     0.0316138  
C494     C      0.659320000000     0.023210000000     0.008540000000     0.0311847  
C495     C      0.659410000000     0.990360000000     0.007160000000     0.0313179  
C496     C      0.603920000000     0.990110000000     0.509050000000     0.0316947  
C497     C      0.240390000000     0.610530000000     0.737210000000     0.0332893  
C498     C      0.240120000000     0.651940000000     0.774270000000     0.0334313  
C499     C      0.272980000000     0.650740000000     0.775780000000     0.0328727  
C500     C      0.273210000000     0.611600000000     0.736340000000     0.0333691  
C501     C      0.240600000000     0.652260000000     0.985280000000     0.0367101  
C502     C      0.240280000000     0.610840000000     0.522340000000     0.033304   
C503     C      0.273100000000     0.611980000000     0.523810000000     0.033233   
C504     C      0.273470000000     0.651130000000     0.984380000000     0.0358454  
C505     C      0.132870000000     0.602470000000     0.895090000000     0.0317938  
C506     C      0.130240000000     0.657930000000     0.895030000000     0.0315277  
C507     C      0.129930000000     0.657930000000     0.862330000000     0.0315905  
C508     C      0.132560000000     0.602470000000     0.862240000000     0.0316606  
C509     C      0.131260000000     0.605440000000     0.612330000000     0.0311529  
C510     C      0.133930000000     0.660900000000     0.612230000000     0.0313271  
C511     C      0.134160000000     0.660900000000     0.645110000000     0.0314308  
C512     C      0.131480000000     0.605450000000     0.645040000000     0.0312517  
C513     C      0.740020000000     0.650770000000     0.728180000000     0.0328596  
C514     C      0.740290000000     0.611610000000     0.767600000000     0.0333013  
C515     C      0.773100000000     0.610590000000     0.766350000000     0.0333163  
C516     C      0.772890000000     0.652010000000     0.729300000000     0.033384   
C517     C      0.990200000000     0.604200000000     0.750410000000     0.0317682  
C518     C      0.990220000000     0.659720000000     0.750480000000     0.0316959  
C519     C      0.023090000000     0.659700000000     0.751320000000     0.031723   
C520     C      0.023050000000     0.604170000000     0.751380000000     0.0316142  
C521     C      0.772770000000     0.612540000000     0.979800000000     0.0332179  
C522     C      0.773670000000     0.652270000000     0.518660000000     0.0333526  
C523     C      0.740890000000     0.651030000000     0.520610000000     0.0336168  
C524     C      0.739890000000     0.613750000000     0.979410000000     0.0378156  
C525     C      0.880000000000     0.661150000000     0.890070000000     0.0315348  
C526     C      0.882660000000     0.605690000000     0.890040000000     0.0314781  
C527     C      0.882400000000     0.605650000000     0.857330000000     0.0313965  
C528     C      0.879730000000     0.661100000000     0.857200000000     0.0316061  
C529     C      0.880080000000     0.602670000000     0.607200000000     0.0314592  
C530     C      0.882840000000     0.658120000000     0.607330000000     0.0313267  
C531     C      0.883010000000     0.658090000000     0.640030000000     0.0311619  
C532     C      0.880270000000     0.602630000000     0.640070000000     0.0315152  
C533     C      0.990390000000     0.659510000000     0.500680000000     0.0316248  
C534     C      0.990340000000     0.603980000000     0.000790000000     0.031187   
C535     C      0.023200000000     0.603960000000     0.001930000000     0.0311508  
C536     C      0.023240000000     0.659480000000     0.501960000000     0.0316785  
C537     C      0.360370000000     0.240370000000     0.779170000000     0.033409   
C538     C      0.402340000000     0.239960000000     0.742750000000     0.0333388  
C539     C      0.401260000000     0.272780000000     0.741220000000     0.0333226  
C540     C      0.361530000000     0.273250000000     0.780060000000     0.0328272  
C541     C      0.360320000000     0.240390000000     0.529690000000     0.0332912  
C542     C      0.402650000000     0.239990000000     0.993670000000     0.0367132  
C543     C      0.401580000000     0.272790000000     0.992130000000     0.0361323  
C544     C      0.361450000000     0.273270000000     0.530570000000     0.0327256  
C545     C      0.408850000000     0.132230000000     0.869680000000     0.0314964  
C546     C      0.353320000000     0.132300000000     0.869620000000     0.031582   
C547     C      0.353240000000     0.132620000000     0.902390000000     0.0316288  
C548     C      0.408760000000     0.132330000000     0.902460000000     0.0317279  
C549     C      0.353250000000     0.131450000000     0.619610000000     0.0314982  
C550     C      0.408770000000     0.131450000000     0.619680000000     0.0314295  
C551     C      0.408690000000     0.131540000000     0.652460000000     0.0314055  
C552     C      0.353160000000     0.131760000000     0.652390000000     0.0312439  
C553     C      0.402450000000     0.772690000000     0.772720000000     0.0333075  
C554     C      0.360920000000     0.773130000000     0.735780000000     0.0332979  
C555     C      0.362200000000     0.740280000000     0.734020000000     0.0328512  
C556     C      0.401470000000     0.739860000000     0.773330000000     0.0333608  
C557     C      0.353120000000     0.990060000000     0.759270000000     0.0317052  
C558     C      0.408650000000     0.990100000000     0.759380000000     0.0317636  
C559     C      0.408630000000     0.022950000000     0.760190000000     0.0316947  
C560     C      0.353100000000     0.022940000000     0.759930000000     0.0316862  
C561     C      0.360890000000     0.772820000000     0.526210000000     0.0332565  
C562     C      0.402360000000     0.772990000000     0.989210000000     0.0368268  
C563     C      0.401380000000     0.740160000000     0.988050000000     0.036156   
C564     C      0.362170000000     0.739960000000     0.527420000000     0.0329176  
C565     C      0.407380000000     0.881570000000     0.898260000000     0.0315135  
C566     C      0.351920000000     0.878830000000     0.898340000000     0.0315442  
C567     C      0.351930000000     0.878610000000     0.865470000000     0.0315582  
C568     C      0.407390000000     0.881340000000     0.865550000000     0.0313504  
C569     C      0.410300000000     0.881070000000     0.648330000000     0.0315636  
C570     C      0.354840000000     0.883720000000     0.648260000000     0.0313542  
C571     C      0.354830000000     0.883510000000     0.615560000000     0.0313242  
C572     C      0.410290000000     0.880860000000     0.615480000000     0.0315149  
C573     C      0.353080000000     0.990120000000     0.506920000000     0.0317018  
C574     C      0.408580000000     0.990120000000     0.008570000000     0.0313263  
C575     C      0.408560000000     0.022970000000     0.009560000000     0.0313197  
C576     C      0.353050000000     0.022990000000     0.507890000000     0.0315366  
H1       H      0.879810000000     0.330820000000     0.403330000000     0.0389734  
H2       H      0.880000000000     0.431480000000     0.403260000000     0.0386449  
H3       H      0.880270000000     0.431400000000     0.346690000000     0.0387253  
H4       H      0.879820000000     0.330730000000     0.346770000000     0.0387722  
H5       H      0.881660000000     0.431350000000     0.096660000000     0.0387886  
H6       H      0.881130000000     0.330680000000     0.096800000000     0.0384214  
H7       H      0.881090000000     0.330810000000     0.153360000000     0.038832   
H8       H      0.881360000000     0.431480000000     0.153220000000     0.0387931  
H9       H      0.977770000000     0.431180000000     0.248650000000     0.0388706  
H10      H      0.977700000000     0.330570000000     0.252010000000     0.0388395  
H11      H      0.034470000000     0.330550000000     0.252080000000     0.0387993  
H12      H      0.034470000000     0.431160000000     0.248730000000     0.0388591  
H13      H      0.131580000000     0.431440000000     0.404080000000     0.038868   
H14      H      0.131780000000     0.330770000000     0.404210000000     0.0389857  
H15      H      0.131580000000     0.330650000000     0.347650000000     0.0387923  
H16      H      0.131130000000     0.431320000000     0.347520000000     0.0390182  
H17      H      0.131740000000     0.330670000000     0.097630000000     0.0385748  
H18      H      0.131330000000     0.431340000000     0.097530000000     0.0385613  
H19      H      0.131740000000     0.431430000000     0.154100000000     0.0385196  
H20      H      0.131890000000     0.330770000000     0.154190000000     0.0388563  
H21      H      0.034500000000     0.431180000000     0.998360000000     0.0390413  
H22      H      0.034500000000     0.330570000000     0.501740000000     0.03885    
H23      H      0.977740000000     0.330570000000     0.501220000000     0.0388607  
H24      H      0.977800000000     0.431180000000     0.997840000000     0.0398258  
H25      H      0.728170000000     0.418240000000     0.285650000000     0.0363742  
H26      H      0.726440000000     0.345030000000     0.217060000000     0.0362251  
H27      H      0.783890000000     0.343440000000     0.217480000000     0.0359012  
H28      H      0.785360000000     0.419750000000     0.282640000000     0.0362239  
H29      H      0.628440000000     0.479600000000     0.301040000000     0.0392126  
H30      H      0.634250000000     0.476890000000     0.200870000000     0.0387585  
H31      H      0.634310000000     0.534010000000     0.199550000000     0.0386914  
H32      H      0.628450000000     0.535870000000     0.299750000000     0.0392521  
H33      H      0.728970000000     0.417040000000     0.040070000000     0.0363884  
H34      H      0.725870000000     0.344920000000     0.470390000000     0.0362871  
H35      H      0.783260000000     0.343540000000     0.469360000000     0.0358666  
H36      H      0.786130000000     0.418860000000     0.035600000000     0.0362111  
H37      H      0.632600000000     0.477240000000     0.456770000000     0.0385874  
H38      H      0.631740000000     0.479360000000     0.057120000000     0.039314   
H39      H      0.631990000000     0.536030000000     0.056010000000     0.0391424  
H40      H      0.632580000000     0.534000000000     0.455660000000     0.0388259  
H41      H      0.477470000000     0.632220000000     0.202710000000     0.0389822  
H42      H      0.479060000000     0.632120000000     0.303070000000     0.0388407  
H43      H      0.535820000000     0.632550000000     0.302210000000     0.0386307  
H44      H      0.534170000000     0.632240000000     0.201850000000     0.0391794  
H45      H      0.478230000000     0.629140000000     0.957260000000     0.0389364  
H46      H      0.478760000000     0.634550000000     0.557490000000     0.0388597  
H47      H      0.535840000000     0.634620000000     0.556980000000     0.0387659  
H48      H      0.534580000000     0.629330000000     0.956740000000     0.038964   
H49      H      0.283600000000     0.416930000000     0.289840000000     0.0364161  
H50      H      0.286060000000     0.345070000000     0.219870000000     0.0361907  
H51      H      0.228670000000     0.343630000000     0.219410000000     0.0358245  
H52      H      0.226380000000     0.418720000000     0.285940000000     0.0362559  
H53      H      0.478160000000     0.378910000000     0.309860000000     0.0385005  
H54      H      0.477360000000     0.384410000000     0.209630000000     0.0394404  
H55      H      0.533610000000     0.384370000000     0.208910000000     0.0393721  
H56      H      0.535310000000     0.378940000000     0.309130000000     0.0386355  
H57      H      0.380610000000     0.477480000000     0.206150000000     0.0385803  
H58      H      0.380550000000     0.478830000000     0.306520000000     0.0392584  
H59      H      0.380740000000     0.535500000000     0.305850000000     0.0390309  
H60      H      0.381160000000     0.534270000000     0.205490000000     0.0388316  
H61      H      0.283750000000     0.417500000000     0.038740000000     0.0361935  
H62      H      0.286090000000     0.345140000000     0.469280000000     0.0362655  
H63      H      0.228660000000     0.343600000000     0.469090000000     0.035888   
H64      H      0.226560000000     0.419140000000     0.035120000000     0.036028   
H65      H      0.477270000000     0.378590000000     0.061590000000     0.038533   
H66      H      0.478330000000     0.384960000000     0.461420000000     0.0394225  
H67      H      0.534550000000     0.385150000000     0.461770000000     0.0394861  
H68      H      0.534470000000     0.378770000000     0.061950000000     0.0384936  
H69      H      0.377870000000     0.477580000000     0.455540000000     0.0388447  
H70      H      0.383950000000     0.478730000000     0.055730000000     0.0392264  
H71      H      0.384300000000     0.535120000000     0.055240000000     0.0391625  
H72      H      0.378160000000     0.534620000000     0.455050000000     0.0388545  
H73      H      0.596390000000     0.728750000000     0.217120000000     0.0363579  
H74      H      0.668240000000     0.727160000000     0.287130000000     0.0364032  
H75      H      0.669750000000     0.784560000000     0.286790000000     0.0360237  
H76      H      0.594670000000     0.786010000000     0.220240000000     0.0361707  
H77      H      0.669250000000     0.785070000000     0.037310000000     0.0354453  
H78      H      0.596170000000     0.785650000000     0.468560000000     0.0356013  
H79      H      0.598080000000     0.728200000000     0.466190000000     0.0353541  
H80      H      0.667710000000     0.727760000000     0.038390000000     0.0347067  
H81      H      0.682460000000     0.881930000000     0.408240000000     0.0389048  
H82      H      0.581780000000     0.881890000000     0.408360000000     0.0388077  
H83      H      0.581670000000     0.881050000000     0.351800000000     0.0385887  
H84      H      0.682340000000     0.881350000000     0.351680000000     0.0390419  
H85      H      0.682320000000     0.880820000000     0.101690000000     0.0387508  
H86      H      0.581650000000     0.880390000000     0.101780000000     0.0387533  
H87      H      0.581750000000     0.881240000000     0.158350000000     0.0389972  
H88      H      0.682420000000     0.881400000000     0.158250000000     0.0386637  
H89      H      0.592550000000     0.227270000000     0.229210000000     0.0362654  
H90      H      0.668640000000     0.228990000000     0.294630000000     0.0358897  
H91      H      0.667150000000     0.286440000000     0.294720000000     0.0361706  
H92      H      0.594200000000     0.284440000000     0.225860000000     0.0364488  
H93      H      0.581410000000     0.034790000000     0.261590000000     0.0388677  
H94      H      0.682020000000     0.035250000000     0.258220000000     0.0388403  
H95      H      0.682180000000     0.978550000000     0.255670000000     0.0388387  
H96      H      0.581570000000     0.978150000000     0.259040000000     0.038886   
H97      H      0.668470000000     0.228380000000     0.045620000000     0.0356927  
H98      H      0.592700000000     0.227750000000     0.479830000000     0.0361924  
H99      H      0.594240000000     0.285000000000     0.477580000000     0.0363826  
H100     H      0.666850000000     0.285790000000     0.046820000000     0.0360221  
H101     H      0.681570000000     0.132760000000     0.415250000000     0.0387378  
H102     H      0.580900000000     0.132090000000     0.415310000000     0.0388402  
H103     H      0.580820000000     0.131770000000     0.358750000000     0.0387816  
H104     H      0.681490000000     0.132190000000     0.358680000000     0.0389684  
H105     H      0.580790000000     0.131570000000     0.108790000000     0.0386622  
H106     H      0.681460000000     0.131950000000     0.108640000000     0.038794   
H107     H      0.681590000000     0.132550000000     0.165200000000     0.0386692  
H108     H      0.580920000000     0.131910000000     0.165350000000     0.0388614  
H109     H      0.581230000000     0.034780000000     0.011660000000     0.0384861  
H110     H      0.681840000000     0.035230000000     0.508240000000     0.0388954  
H111     H      0.682010000000     0.978550000000     0.505920000000     0.0389067  
H112     H      0.581400000000     0.978100000000     0.009350000000     0.0384134  
H113     H      0.228270000000     0.594100000000     0.221900000000     0.0361359  
H114     H      0.227740000000     0.668450000000     0.289290000000     0.0358385  
H115     H      0.285160000000     0.666740000000     0.291490000000     0.0360533  
H116     H      0.285540000000     0.595630000000     0.220720000000     0.0362147  
H117     H      0.228470000000     0.668740000000     0.470040000000     0.0359218  
H118     H      0.227920000000     0.594380000000     0.037410000000     0.0358299  
H119     H      0.285190000000     0.596010000000     0.039610000000     0.0360518  
H120     H      0.285870000000     0.667140000000     0.468860000000     0.0362337  
H121     H      0.134040000000     0.579970000000     0.407060000000     0.0388555  
H122     H      0.129270000000     0.680530000000     0.406840000000     0.0390421  
H123     H      0.128760000000     0.680530000000     0.350540000000     0.0389827  
H124     H      0.133540000000     0.579970000000     0.350250000000     0.0388643  
H125     H      0.130100000000     0.582850000000     0.100540000000     0.0387914  
H126     H      0.134940000000     0.683400000000     0.100250000000     0.0386016  
H127     H      0.135300000000     0.683400000000     0.157070000000     0.0386766  
H128     H      0.130470000000     0.582850000000     0.156840000000     0.0388513  
H129     H      0.727650000000     0.666760000000     0.212610000000     0.0359459  
H130     H      0.728150000000     0.595620000000     0.283340000000     0.036194   
H131     H      0.785420000000     0.594170000000     0.281500000000     0.0360523  
H132     H      0.785070000000     0.668540000000     0.214140000000     0.0356925  
H133     H      0.978270000000     0.581620000000     0.250090000000     0.0388352  
H134     H      0.978290000000     0.682290000000     0.250170000000     0.0388088  
H135     H      0.035040000000     0.682260000000     0.251630000000     0.0388233  
H136     H      0.034950000000     0.581590000000     0.251700000000     0.0388704  
H137     H      0.784690000000     0.596740000000     0.463700000000     0.0355084  
H138     H      0.786280000000     0.668030000000     0.034270000000     0.0358099  
H139     H      0.729020000000     0.666230000000     0.037310000000     0.0343201  
H140     H      0.727220000000     0.598490000000     0.463360000000     0.0353998  
H141     H      0.879000000000     0.683660000000     0.402030000000     0.0388942  
H142     H      0.883820000000     0.583100000000     0.401850000000     0.0389689  
H143     H      0.883390000000     0.583030000000     0.345550000000     0.0388637  
H144     H      0.878570000000     0.683590000000     0.345210000000     0.0388272  
H145     H      0.878900000000     0.580190000000     0.095210000000     0.0384998  
H146     H      0.883910000000     0.680730000000     0.095560000000     0.0385875  
H147     H      0.884190000000     0.680670000000     0.151850000000     0.0388898  
H148     H      0.879200000000     0.580120000000     0.152020000000     0.0387564  
H149     H      0.978500000000     0.682090000000     0.000250000000     0.0377217  
H150     H      0.978390000000     0.581420000000     0.500410000000     0.0388208  
H151     H      0.035100000000     0.581380000000     0.502350000000     0.0388294  
H152     H      0.035180000000     0.682050000000     0.002350000000     0.0383294  
H153     H      0.343640000000     0.228280000000     0.294170000000     0.0358517  
H154     H      0.419020000000     0.227560000000     0.227940000000     0.0360821  
H155     H      0.417480000000     0.284830000000     0.225630000000     0.036305   
H156     H      0.345290000000     0.285690000000     0.295310000000     0.0361845  
H157     H      0.343450000000     0.228290000000     0.044520000000     0.0356994  
H158     H      0.419460000000     0.227610000000     0.479000000000     0.0362435  
H159     H      0.417940000000     0.284840000000     0.476690000000     0.0364157  
H160     H      0.345050000000     0.285720000000     0.045640000000     0.0360661  
H161     H      0.431430000000     0.132090000000     0.357810000000     0.0388055  
H162     H      0.330760000000     0.132300000000     0.357700000000     0.0389594  
H163     H      0.330650000000     0.132770000000     0.414260000000     0.0387626  
H164     H      0.431320000000     0.132310000000     0.414370000000     0.0388432  
H165     H      0.330690000000     0.131420000000     0.107690000000     0.0387955  
H166     H      0.431360000000     0.131350000000     0.107810000000     0.0386507  
H167     H      0.431250000000     0.131560000000     0.164370000000     0.038859   
H168     H      0.330580000000     0.131880000000     0.164260000000     0.0387075  
H169     H      0.418910000000     0.784720000000     0.288060000000     0.0361651  
H170     H      0.344340000000     0.785580000000     0.220910000000     0.0358395  
H171     H      0.346180000000     0.728180000000     0.218280000000     0.0360455  
H172     H      0.417520000000     0.727450000000     0.288810000000     0.0362591  
H173     H      0.330560000000     0.978120000000     0.258930000000     0.0388166  
H174     H      0.431230000000     0.978190000000     0.259190000000     0.0388436  
H175     H      0.431200000000     0.034870000000     0.260520000000     0.0388884  
H176     H      0.330530000000     0.034860000000     0.260090000000     0.0388438  
H177     H      0.344330000000     0.785020000000     0.041310000000     0.035753   
H178     H      0.418790000000     0.785280000000     0.474040000000     0.0360151  
H179     H      0.417430000000     0.728000000000     0.472370000000     0.0361775  
H180     H      0.346180000000     0.727630000000     0.043020000000     0.0360874  
H181     H      0.429970000000     0.882760000000     0.410050000000     0.0388615  
H182     H      0.329430000000     0.877790000000     0.410310000000     0.0387949  
H183     H      0.329440000000     0.877450000000     0.353490000000     0.0387597  
H184     H      0.429990000000     0.882390000000     0.353750000000     0.0389487  
H185     H      0.432810000000     0.880040000000     0.160300000000     0.0387977  
H186     H      0.332250000000     0.884860000000     0.160060000000     0.0389311  
H187     H      0.332230000000     0.884520000000     0.103760000000     0.038878   
H188     H      0.432790000000     0.879700000000     0.103510000000     0.038785   
H189     H      0.330530000000     0.978190000000     0.005920000000     0.0383313  
H190     H      0.431160000000     0.978200000000     0.508910000000     0.0389041  
H191     H      0.431120000000     0.034870000000     0.510570000000     0.038889   
H192     H      0.330490000000     0.034930000000     0.007550000000     0.0383868  
H193     H      0.879810000000     0.330820000000     0.903330000000     0.039294   
H194     H      0.880000000000     0.431480000000     0.903260000000     0.038959   
H195     H      0.880270000000     0.431400000000     0.846690000000     0.0388583  
H196     H      0.879820000000     0.330730000000     0.846770000000     0.038949   
H197     H      0.881660000000     0.431350000000     0.596660000000     0.0390271  
H198     H      0.881130000000     0.330680000000     0.596800000000     0.0387901  
H199     H      0.881090000000     0.330810000000     0.653360000000     0.0389799  
H200     H      0.881360000000     0.431480000000     0.653220000000     0.0388746  
H201     H      0.977770000000     0.431180000000     0.748660000000     0.0389267  
H202     H      0.977700000000     0.330570000000     0.752010000000     0.0389303  
H203     H      0.034470000000     0.330550000000     0.752080000000     0.0389583  
H204     H      0.034470000000     0.431160000000     0.748730000000     0.0388851  
H205     H      0.131580000000     0.431440000000     0.904080000000     0.0393067  
H206     H      0.131780000000     0.330770000000     0.904210000000     0.0394519  
H207     H      0.131580000000     0.330650000000     0.847650000000     0.0389576  
H208     H      0.131130000000     0.431320000000     0.847520000000     0.0391404  
H209     H      0.131740000000     0.330670000000     0.597620000000     0.0388167  
H210     H      0.131320000000     0.431340000000     0.597530000000     0.0387338  
H211     H      0.131740000000     0.431430000000     0.654100000000     0.038569   
H212     H      0.131890000000     0.330770000000     0.654190000000     0.0389807  
H213     H      0.034500000000     0.431180000000     0.498360000000     0.0388954  
H214     H      0.034500000000     0.330570000000     0.001740000000     0.0381195  
H215     H      0.977750000000     0.330570000000     0.001220000000     0.0388637  
H216     H      0.977800000000     0.431180000000     0.497840000000     0.0388689  
H217     H      0.728170000000     0.418240000000     0.785650000000     0.0364461  
H218     H      0.726440000000     0.345030000000     0.717060000000     0.0362726  
H219     H      0.783890000000     0.343440000000     0.717480000000     0.0359704  
H220     H      0.785360000000     0.419750000000     0.782650000000     0.0362556  
H221     H      0.628440000000     0.479600000000     0.801050000000     0.0392473  
H222     H      0.634250000000     0.476890000000     0.700870000000     0.0387746  
H223     H      0.634310000000     0.534010000000     0.699550000000     0.0386926  
H224     H      0.628450000000     0.535870000000     0.799750000000     0.0392968  
H225     H      0.728970000000     0.417040000000     0.540070000000     0.0365118  
H226     H      0.725870000000     0.344920000000     0.970390000000     0.0363966  
H227     H      0.783260000000     0.343540000000     0.969360000000     0.035899   
H228     H      0.786130000000     0.418870000000     0.535600000000     0.0363542  
H229     H      0.632600000000     0.477240000000     0.956770000000     0.0384155  
H230     H      0.631740000000     0.479360000000     0.557120000000     0.0392993  
H231     H      0.631990000000     0.536030000000     0.556010000000     0.0391068  
H232     H      0.632580000000     0.534000000000     0.955660000000     0.0386055  
H233     H      0.477470000000     0.632220000000     0.702710000000     0.0389967  
H234     H      0.479060000000     0.632120000000     0.803070000000     0.0388855  
H235     H      0.535820000000     0.632560000000     0.802210000000     0.0386747  
H236     H      0.534170000000     0.632240000000     0.701850000000     0.0391945  
H237     H      0.478230000000     0.629140000000     0.457260000000     0.0391515  
H238     H      0.478760000000     0.634550000000     0.057490000000     0.0388661  
H239     H      0.535840000000     0.634620000000     0.056980000000     0.0387819  
H240     H      0.534580000000     0.629330000000     0.456750000000     0.0391879  
H241     H      0.283600000000     0.416940000000     0.789840000000     0.0364761  
H242     H      0.286060000000     0.345080000000     0.719870000000     0.036254   
H243     H      0.228670000000     0.343630000000     0.719410000000     0.0358587  
H244     H      0.226380000000     0.418720000000     0.785940000000     0.0363182  
H245     H      0.478160000000     0.378910000000     0.809860000000     0.0385174  
H246     H      0.477360000000     0.384410000000     0.709630000000     0.0394522  
H247     H      0.533610000000     0.384370000000     0.708910000000     0.0393891  
H248     H      0.535310000000     0.378940000000     0.809130000000     0.0386943  
H249     H      0.380610000000     0.477490000000     0.706150000000     0.0385772  
H250     H      0.380550000000     0.478830000000     0.806520000000     0.0393209  
H251     H      0.380740000000     0.535500000000     0.805850000000     0.0390954  
H252     H      0.381160000000     0.534270000000     0.705490000000     0.0388338  
H253     H      0.283750000000     0.417500000000     0.538740000000     0.0362884  
H254     H      0.286090000000     0.345140000000     0.969280000000     0.0364076  
H255     H      0.228660000000     0.343600000000     0.969090000000     0.0360252  
H256     H      0.226560000000     0.419140000000     0.535120000000     0.0360814  
H257     H      0.477270000000     0.378590000000     0.561590000000     0.038517   
H258     H      0.478330000000     0.384960000000     0.961420000000     0.0392205  
H259     H      0.534550000000     0.385150000000     0.961770000000     0.0392622  
H260     H      0.534460000000     0.378770000000     0.561950000000     0.0384778  
H261     H      0.377870000000     0.477580000000     0.955530000000     0.0386709  
H262     H      0.383950000000     0.478730000000     0.555730000000     0.0391906  
H263     H      0.384300000000     0.535120000000     0.555240000000     0.0391248  
H264     H      0.378160000000     0.534620000000     0.955050000000     0.0387412  
H265     H      0.596390000000     0.728750000000     0.717130000000     0.0363794  
H266     H      0.668240000000     0.727160000000     0.787130000000     0.0364895  
H267     H      0.669750000000     0.784560000000     0.786790000000     0.0361331  
H268     H      0.594670000000     0.786010000000     0.720240000000     0.0361872  
H269     H      0.669250000000     0.785080000000     0.537310000000     0.0355929  
H270     H      0.596170000000     0.785650000000     0.968560000000     0.0358975  
H271     H      0.598080000000     0.728200000000     0.966190000000     0.0354521  
H272     H      0.667710000000     0.727760000000     0.538390000000     0.0347897  
H273     H      0.682460000000     0.881930000000     0.908240000000     0.0394687  
H274     H      0.581790000000     0.881890000000     0.908360000000     0.0393051  
H275     H      0.581670000000     0.881050000000     0.851800000000     0.0387328  
H276     H      0.682340000000     0.881350000000     0.851680000000     0.0392688  
H277     H      0.682320000000     0.880830000000     0.601690000000     0.0388996  
H278     H      0.581650000000     0.880390000000     0.601780000000     0.0388456  
H279     H      0.581750000000     0.881240000000     0.658360000000     0.0390277  
H280     H      0.682420000000     0.881400000000     0.658240000000     0.0387487  
H281     H      0.592550000000     0.227270000000     0.729210000000     0.0362868  
H282     H      0.668640000000     0.228990000000     0.794630000000     0.0359919  
H283     H      0.667150000000     0.286440000000     0.794720000000     0.0362381  
H284     H      0.594200000000     0.284440000000     0.725860000000     0.0364619  
H285     H      0.581410000000     0.034800000000     0.761590000000     0.0389306  
H286     H      0.682020000000     0.035250000000     0.758220000000     0.0389537  
H287     H      0.682180000000     0.978550000000     0.755670000000     0.0389666  
H288     H      0.581570000000     0.978150000000     0.759040000000     0.0389372  
H289     H      0.668470000000     0.228380000000     0.545620000000     0.0359032  
H290     H      0.592700000000     0.227750000000     0.979830000000     0.0365212  
H291     H      0.594240000000     0.285010000000     0.977580000000     0.0365142  
H292     H      0.666850000000     0.285790000000     0.546820000000     0.0361798  
H293     H      0.681570000000     0.132760000000     0.915250000000     0.0392956  
H294     H      0.580900000000     0.132090000000     0.915310000000     0.0393346  
H295     H      0.580820000000     0.131770000000     0.858750000000     0.0389455  
H296     H      0.681490000000     0.132190000000     0.858680000000     0.0392033  
H297     H      0.580790000000     0.131570000000     0.608790000000     0.0387522  
H298     H      0.681460000000     0.131950000000     0.608640000000     0.0389448  
H299     H      0.681590000000     0.132550000000     0.665200000000     0.0387728  
H300     H      0.580920000000     0.131910000000     0.665350000000     0.0388822  
H301     H      0.581230000000     0.034780000000     0.511670000000     0.0388635  
H302     H      0.681840000000     0.035230000000     0.008240000000     0.0384176  
H303     H      0.682010000000     0.978550000000     0.005920000000     0.0384157  
H304     H      0.581400000000     0.978100000000     0.509350000000     0.0388086  
H305     H      0.228270000000     0.594100000000     0.721900000000     0.0361605  
H306     H      0.227740000000     0.668450000000     0.789290000000     0.0359317  
H307     H      0.285160000000     0.666740000000     0.791490000000     0.0361538  
H308     H      0.285540000000     0.595630000000     0.720720000000     0.0361988  
H309     H      0.228470000000     0.668740000000     0.970040000000     0.036302   
H310     H      0.227920000000     0.594380000000     0.537410000000     0.0359624  
H311     H      0.285190000000     0.596010000000     0.539610000000     0.0361191  
H312     H      0.285870000000     0.667140000000     0.968860000000     0.0364232  
H313     H      0.134040000000     0.579970000000     0.907060000000     0.0393329  
H314     H      0.129270000000     0.680530000000     0.906840000000     0.0395684  
H315     H      0.128760000000     0.680530000000     0.850550000000     0.0391973  
H316     H      0.133540000000     0.579970000000     0.850250000000     0.0390108  
H317     H      0.130100000000     0.582850000000     0.600540000000     0.0389065  
H318     H      0.134940000000     0.683400000000     0.600250000000     0.0388068  
H319     H      0.135300000000     0.683400000000     0.657070000000     0.038764   
H320     H      0.130470000000     0.582850000000     0.656840000000     0.0389068  
H321     H      0.727650000000     0.666760000000     0.712600000000     0.0359814  
H322     H      0.728150000000     0.595620000000     0.783340000000     0.0362314  
H323     H      0.785420000000     0.594170000000     0.781500000000     0.0361009  
H324     H      0.785070000000     0.668540000000     0.714140000000     0.0357612  
H325     H      0.978270000000     0.581620000000     0.750090000000     0.0388915  
H326     H      0.978290000000     0.682290000000     0.750170000000     0.038937   
H327     H      0.035040000000     0.682260000000     0.751630000000     0.0389511  
H328     H      0.034950000000     0.581590000000     0.751700000000     0.0389186  
H329     H      0.784690000000     0.596740000000     0.963700000000     0.0360066  
H330     H      0.786280000000     0.668030000000     0.534270000000     0.0355019  
H331     H      0.729020000000     0.666230000000     0.537310000000     0.0346848  
H332     H      0.727210000000     0.598500000000     0.963360000000     0.0351281  
H333     H      0.879000000000     0.683660000000     0.902030000000     0.0392821  
H334     H      0.883820000000     0.583100000000     0.901850000000     0.0392165  
H335     H      0.883400000000     0.583030000000     0.845550000000     0.0389662  
H336     H      0.878570000000     0.683590000000     0.845210000000     0.0390254  
H337     H      0.878900000000     0.580190000000     0.595210000000     0.0388068  
H338     H      0.883910000000     0.680730000000     0.595550000000     0.0389111  
H339     H      0.884190000000     0.680670000000     0.651850000000     0.0390161  
H340     H      0.879200000000     0.580120000000     0.652020000000     0.0388389  
H341     H      0.978500000000     0.682090000000     0.500250000000     0.0389115  
H342     H      0.978390000000     0.581420000000     0.000410000000     0.0375741  
H343     H      0.035100000000     0.581380000000     0.002350000000     0.0382476  
H344     H      0.035180000000     0.682050000000     0.502350000000     0.0388566  
H345     H      0.343630000000     0.228280000000     0.794170000000     0.0359525  
H346     H      0.419020000000     0.227560000000     0.727940000000     0.0361106  
H347     H      0.417480000000     0.284830000000     0.725630000000     0.0362914  
H348     H      0.345290000000     0.285690000000     0.795310000000     0.0362509  
H349     H      0.343450000000     0.228290000000     0.544520000000     0.0358937  
H350     H      0.419460000000     0.227610000000     0.979000000000     0.0365672  
H351     H      0.417940000000     0.284840000000     0.976690000000     0.0365405  
H352     H      0.345050000000     0.285720000000     0.545640000000     0.0362083  
H353     H      0.431430000000     0.132100000000     0.857810000000     0.0389671  
H354     H      0.330760000000     0.132300000000     0.857700000000     0.0391975  
H355     H      0.330650000000     0.132770000000     0.914260000000     0.0393277  
H356     H      0.431320000000     0.132310000000     0.914370000000     0.0393336  
H357     H      0.330690000000     0.131420000000     0.607690000000     0.0389294  
H358     H      0.431360000000     0.131350000000     0.607810000000     0.0387596  
H359     H      0.431250000000     0.131560000000     0.664370000000     0.0388729  
H360     H      0.330580000000     0.131880000000     0.664260000000     0.0388043  
H361     H      0.418910000000     0.784720000000     0.788060000000     0.0362335  
H362     H      0.344340000000     0.785580000000     0.720910000000     0.035895   
H363     H      0.346180000000     0.728180000000     0.718280000000     0.0360798  
H364     H      0.417520000000     0.727460000000     0.788810000000     0.0362862  
H365     H      0.330560000000     0.978120000000     0.758930000000     0.0389481  
H366     H      0.431230000000     0.978190000000     0.759190000000     0.03891    
H367     H      0.431200000000     0.034880000000     0.760520000000     0.0389406  
H368     H      0.330530000000     0.034860000000     0.760090000000     0.0389751  
H369     H      0.344330000000     0.785020000000     0.541310000000     0.0359486  
H370     H      0.418790000000     0.785280000000     0.974040000000     0.036338   
H371     H      0.417430000000     0.728000000000     0.972370000000     0.0363023  
H372     H      0.346180000000     0.727630000000     0.543020000000     0.036213   
H373     H      0.429970000000     0.882760000000     0.910050000000     0.0393551  
H374     H      0.329430000000     0.877790000000     0.910310000000     0.0393551  
H375     H      0.329440000000     0.877450000000     0.853490000000     0.0389968  
H376     H      0.429990000000     0.882390000000     0.853750000000     0.0391098  
H377     H      0.432810000000     0.880050000000     0.660300000000     0.0388199  
H378     H      0.332250000000     0.884860000000     0.660060000000     0.0390219  
H379     H      0.332230000000     0.884520000000     0.603760000000     0.0390202  
H380     H      0.432790000000     0.879710000000     0.603510000000     0.0388801  
H381     H      0.330530000000     0.978190000000     0.505920000000     0.0388231  
H382     H      0.431160000000     0.978210000000     0.008910000000     0.038497   
H383     H      0.431120000000     0.034870000000     0.010570000000     0.0384925  
H384     H      0.330490000000     0.034930000000     0.507550000000     0.0388732  
N1       N      0.879950000000     0.381180000000     0.407790000000    -0.180103   
N2       N      0.880120000000     0.381040000000     0.342240000000    -0.180124   
N3       N      0.881390000000     0.380990000000     0.092250000000    -0.180424   
N4       N      0.881200000000     0.381180000000     0.157770000000    -0.180272   
N5       N      0.973230000000     0.380870000000     0.250330000000    -0.18015    
N6       N      0.038970000000     0.380850000000     0.250420000000    -0.180128   
N7       N      0.131690000000     0.381140000000     0.408630000000    -0.180264   
N8       N      0.131310000000     0.380950000000     0.343100000000    -0.180228   
N9       N      0.131480000000     0.380980000000     0.093090000000    -0.180115   
N10      N      0.131820000000     0.381130000000     0.158630000000    -0.180151   
N11      N      0.039010000000     0.380880000000     0.000140000000    -0.181777   
N12      N      0.973270000000     0.380880000000     0.999520000000    -0.178161   
N13      N      0.723350000000     0.381580000000     0.251500000000    -0.181183   
N14      N      0.788590000000     0.381560000000     0.250010000000    -0.181315   
N15      N      0.631360000000     0.473730000000     0.251050000000    -0.179916   
N16      N      0.631400000000     0.539460000000     0.249510000000    -0.179932   
N17      N      0.723470000000     0.380940000000     0.005440000000    -0.182532   
N18      N      0.788650000000     0.381240000000     0.002250000000    -0.18275    
N19      N      0.632120000000     0.473800000000     0.007010000000    -0.181478   
N20      N      0.632260000000     0.539510000000     0.005760000000    -0.181513   
N21      N      0.473780000000     0.632100000000     0.252940000000    -0.180049   
N22      N      0.539490000000     0.632370000000     0.251990000000    -0.18011    
N23      N      0.473990000000     0.631830000000     0.007440000000    -0.181328   
N24      N      0.539730000000     0.631990000000     0.006850000000    -0.181588   
N25      N      0.288770000000     0.380980000000     0.255020000000    -0.181282   
N26      N      0.223580000000     0.381210000000     0.252500000000    -0.181335   
N27      N      0.473240000000     0.381630000000     0.259850000000    -0.180031   
N28      N      0.538970000000     0.381630000000     0.258970000000    -0.179959   
N29      N      0.380590000000     0.473660000000     0.256360000000    -0.180124   
N30      N      0.381020000000     0.539370000000     0.255640000000    -0.180064   
N31      N      0.288870000000     0.381280000000     0.004180000000    -0.182461   
N32      N      0.223650000000     0.381360000000     0.001980000000    -0.182515   
N33      N      0.473280000000     0.381710000000     0.011500000000    -0.181349   
N34      N      0.539030000000     0.381930000000     0.011920000000    -0.181362   
N35      N      0.380880000000     0.473650000000     0.005650000000    -0.181474   
N36      N      0.381270000000     0.539380000000     0.005080000000    -0.181481   
N37      N      0.632330000000     0.724000000000     0.252030000000    -0.18125    
N38      N      0.632180000000     0.789240000000     0.253630000000    -0.181392   
N39      N      0.632620000000     0.789280000000     0.003070000000    -0.18331    
N40      N      0.632840000000     0.724080000000     0.002290000000    -0.182826   
N41      N      0.632150000000     0.881980000000     0.412780000000    -0.180176   
N42      N      0.631980000000     0.881140000000     0.347260000000    -0.180216   
N43      N      0.631960000000     0.880580000000     0.097240000000    -0.180132   
N44      N      0.632120000000     0.881420000000     0.162790000000    -0.180152   
N45      N      0.630630000000     0.224160000000     0.261990000000    -0.181288   
N46      N      0.630750000000     0.289400000000     0.260120000000    -0.181149   
N47      N      0.631710000000     0.039530000000     0.260120000000    -0.180077   
N48      N      0.631890000000     0.973850000000     0.257120000000    -0.180012   
N49      N      0.630630000000     0.224100000000     0.012710000000    -0.183445   
N50      N      0.630590000000     0.289350000000     0.012120000000    -0.182504   
N51      N      0.631260000000     0.132440000000     0.419760000000    -0.180213   
N52      N      0.631130000000     0.131920000000     0.354230000000    -0.180166   
N53      N      0.631090000000     0.131700000000     0.104230000000    -0.180189   
N54      N      0.631290000000     0.132260000000     0.169760000000    -0.180212   
N55      N      0.631520000000     0.039500000000     0.010130000000    -0.180126   
N56      N      0.631710000000     0.973830000000     0.007420000000    -0.180136   
N57      N      0.224060000000     0.631340000000     0.255480000000    -0.18138    
N58      N      0.289290000000     0.631240000000     0.256090000000    -0.181307   
N59      N      0.224240000000     0.631580000000     0.003720000000    -0.183353   
N60      N      0.289480000000     0.631600000000     0.004290000000    -0.182597   
N61      N      0.131740000000     0.630230000000     0.411440000000    -0.18025    
N62      N      0.131140000000     0.630240000000     0.345910000000    -0.18028    
N63      N      0.132440000000     0.633140000000     0.095900000000    -0.18002    
N64      N      0.132880000000     0.633140000000     0.161460000000    -0.18008    
N65      N      0.723950000000     0.631210000000     0.248010000000    -0.181305   
N66      N      0.789190000000     0.631410000000     0.247860000000    -0.181331   
N67      N      0.973790000000     0.631970000000     0.250010000000    -0.18014    
N68      N      0.039490000000     0.631930000000     0.251810000000    -0.18014    
N69      N      0.789400000000     0.632360000000     0.998910000000    -0.179692   
N70      N      0.724220000000     0.632310000000     0.000460000000    -0.183359   
N71      N      0.881460000000     0.633400000000     0.406430000000    -0.180092   
N72      N      0.880960000000     0.633320000000     0.340880000000    -0.180174   
N73      N      0.881370000000     0.630450000000     0.090890000000    -0.180499   
N74      N      0.881710000000     0.630370000000     0.156430000000    -0.180188   
N75      N      0.973950000000     0.631760000000     0.000140000000    -0.182481   
N76      N      0.039630000000     0.631710000000     0.002510000000    -0.180165   
N77      N      0.381290000000     0.223970000000     0.261060000000    -0.181417   
N78      N      0.381360000000     0.289200000000     0.260410000000    -0.181222   
N79      N      0.381410000000     0.223990000000     0.011760000000    -0.183464   
N80      N      0.381450000000     0.289230000000     0.011080000000    -0.182552   
N81      N      0.381120000000     0.132120000000     0.353270000000    -0.180157   
N82      N      0.380960000000     0.132520000000     0.418800000000    -0.180189   
N83      N      0.381060000000     0.131360000000     0.103270000000    -0.180213   
N84      N      0.380890000000     0.131750000000     0.168800000000    -0.180172   
N85      N      0.381540000000     0.789100000000     0.254630000000    -0.181368   
N86      N      0.381810000000     0.723870000000     0.253520000000    -0.181245   
N87      N      0.380900000000     0.973660000000     0.258920000000    -0.180224   
N88      N      0.380860000000     0.039370000000     0.260370000000    -0.18009    
N89      N      0.381510000000     0.789110000000     0.007630000000    -0.1835     
N90      N      0.381790000000     0.723860000000     0.007670000000    -0.182599   
N91      N      0.379680000000     0.880380000000     0.414680000000    -0.180046   
N92      N      0.379690000000     0.879950000000     0.349120000000    -0.180019   
N93      N      0.382540000000     0.882420000000     0.164670000000    -0.180314   
N94      N      0.382520000000     0.882010000000     0.099140000000    -0.180214   
N95      N      0.380840000000     0.973700000000     0.007320000000    -0.180244   
N96      N      0.380800000000     0.039400000000     0.009250000000    -0.18024    
N97      N      0.879950000000     0.381180000000     0.907790000000    -0.179978   
N98      N      0.880120000000     0.381040000000     0.842240000000    -0.180069   
N99      N      0.881390000000     0.380990000000     0.592250000000    -0.180284   
N100     N      0.881200000000     0.381180000000     0.657770000000    -0.180256   
N101     N      0.973230000000     0.380870000000     0.750330000000    -0.18016    
N102     N      0.038970000000     0.380860000000     0.750420000000    -0.180109   
N103     N      0.131690000000     0.381140000000     0.908630000000    -0.179924   
N104     N      0.131310000000     0.380950000000     0.843100000000    -0.180247   
N105     N      0.131480000000     0.380980000000     0.593090000000    -0.180176   
N106     N      0.131810000000     0.381130000000     0.658630000000    -0.180143   
N107     N      0.039010000000     0.380880000000     0.500140000000    -0.18007    
N108     N      0.973270000000     0.380880000000     0.499520000000    -0.18008    
N109     N      0.723350000000     0.381580000000     0.751500000000    -0.18115    
N110     N      0.788590000000     0.381560000000     0.750010000000    -0.181315   
N111     N      0.631360000000     0.473730000000     0.751050000000    -0.17992    
N112     N      0.631400000000     0.539460000000     0.749510000000    -0.179941   
N113     N      0.723470000000     0.380950000000     0.505440000000    -0.181156   
N114     N      0.788650000000     0.381240000000     0.502250000000    -0.181352   
N115     N      0.632120000000     0.473800000000     0.507010000000    -0.180095   
N116     N      0.632260000000     0.539510000000     0.505770000000    -0.180135   
N117     N      0.473780000000     0.632100000000     0.752940000000    -0.180048   
N118     N      0.539490000000     0.632370000000     0.751990000000    -0.180113   
N119     N      0.473980000000     0.631830000000     0.507440000000    -0.180018   
N120     N      0.539730000000     0.631990000000     0.506850000000    -0.180213   
N121     N      0.288770000000     0.380980000000     0.755020000000    -0.181251   
N122     N      0.223580000000     0.381210000000     0.752500000000    -0.181391   
N123     N      0.473240000000     0.381630000000     0.759850000000    -0.180067   
N124     N      0.538970000000     0.381630000000     0.758970000000    -0.179949   
N125     N      0.380590000000     0.473660000000     0.756360000000    -0.180123   
N126     N      0.381020000000     0.539370000000     0.755640000000    -0.180062   
N127     N      0.288870000000     0.381280000000     0.504180000000    -0.181081   
N128     N      0.223650000000     0.381360000000     0.501980000000    -0.181312   
N129     N      0.473280000000     0.381710000000     0.511500000000    -0.180016   
N130     N      0.539030000000     0.381930000000     0.511920000000    -0.179976   
N131     N      0.380880000000     0.473650000000     0.505650000000    -0.180086   
N132     N      0.381270000000     0.539380000000     0.505080000000    -0.180145   
N133     N      0.632330000000     0.724000000000     0.752030000000    -0.18124    
N134     N      0.632180000000     0.789240000000     0.753630000000    -0.181382   
N135     N      0.632620000000     0.789280000000     0.503070000000    -0.181313   
N136     N      0.632840000000     0.724080000000     0.502290000000    -0.18147    
N137     N      0.632150000000     0.881980000000     0.912780000000    -0.179845   
N138     N      0.631980000000     0.881140000000     0.847260000000    -0.180259   
N139     N      0.631960000000     0.880580000000     0.597240000000    -0.180169   
N140     N      0.632120000000     0.881420000000     0.662790000000    -0.180147   
N141     N      0.630630000000     0.224160000000     0.761990000000    -0.181273   
N142     N      0.630750000000     0.289400000000     0.760120000000    -0.181197   
N143     N      0.631710000000     0.039530000000     0.760120000000    -0.180065   
N144     N      0.631890000000     0.973850000000     0.757130000000    -0.179988   
N145     N      0.630630000000     0.224100000000     0.512710000000    -0.181415   
N146     N      0.630590000000     0.289350000000     0.512120000000    -0.181163   
N147     N      0.631260000000     0.132440000000     0.919760000000    -0.179884   
N148     N      0.631130000000     0.131920000000     0.854230000000    -0.180132   
N149     N      0.631090000000     0.131700000000     0.604230000000    -0.180222   
N150     N      0.631290000000     0.132260000000     0.669760000000    -0.180214   
N151     N      0.631520000000     0.039500000000     0.510130000000    -0.180095   
N152     N      0.631710000000     0.973830000000     0.507420000000    -0.18005    
N153     N      0.224060000000     0.631350000000     0.755480000000    -0.181369   
N154     N      0.289290000000     0.631240000000     0.756090000000    -0.181302   
N155     N      0.224240000000     0.631580000000     0.503720000000    -0.181353   
N156     N      0.289480000000     0.631600000000     0.504290000000    -0.181262   
N157     N      0.131740000000     0.630230000000     0.911440000000    -0.179924   
N158     N      0.131140000000     0.630240000000     0.845910000000    -0.18025    
N159     N      0.132440000000     0.633140000000     0.595890000000    -0.180051   
N160     N      0.132880000000     0.633150000000     0.661460000000    -0.180074   
N161     N      0.723950000000     0.631210000000     0.748010000000    -0.181303   
N162     N      0.789200000000     0.631410000000     0.747860000000    -0.181393   
N163     N      0.973790000000     0.631970000000     0.750010000000    -0.180122   
N164     N      0.039490000000     0.631930000000     0.751810000000    -0.180122   
N165     N      0.789400000000     0.632360000000     0.498910000000    -0.181491   
N166     N      0.724220000000     0.632310000000     0.500470000000    -0.181429   
N167     N      0.881460000000     0.633400000000     0.906440000000    -0.18018    
N168     N      0.880960000000     0.633320000000     0.840880000000    -0.180145   
N169     N      0.881370000000     0.630450000000     0.590890000000    -0.180214   
N170     N      0.881710000000     0.630370000000     0.656430000000    -0.180178   
N171     N      0.973950000000     0.631760000000     0.500140000000    -0.180152   
N172     N      0.039630000000     0.631710000000     0.502510000000    -0.180095   
N173     N      0.381290000000     0.223970000000     0.761060000000    -0.181409   
N174     N      0.381360000000     0.289210000000     0.760410000000    -0.181331   
N175     N      0.381410000000     0.223990000000     0.511760000000    -0.181428   
N176     N      0.381450000000     0.289230000000     0.511080000000    -0.181216   
N177     N      0.381120000000     0.132120000000     0.853270000000    -0.180133   
N178     N      0.380960000000     0.132530000000     0.918800000000    -0.179866   
N179     N      0.381050000000     0.131360000000     0.603270000000    -0.180257   
N180     N      0.380890000000     0.131750000000     0.668800000000    -0.180158   
N181     N      0.381540000000     0.789110000000     0.754630000000    -0.181422   
N182     N      0.381810000000     0.723870000000     0.753520000000    -0.181243   
N183     N      0.380900000000     0.973660000000     0.758920000000    -0.180191   
N184     N      0.380860000000     0.039370000000     0.760370000000    -0.180068   
N185     N      0.381510000000     0.789110000000     0.507630000000    -0.181458   
N186     N      0.381790000000     0.723860000000     0.507670000000    -0.181267   
N187     N      0.379680000000     0.880380000000     0.914680000000    -0.179722   
N188     N      0.379690000000     0.879950000000     0.849120000000    -0.179988   
N189     N      0.382540000000     0.882420000000     0.664670000000    -0.180308   
N190     N      0.382520000000     0.882020000000     0.599140000000    -0.180248   
N191     N      0.380840000000     0.973700000000     0.507320000000    -0.180161   
N192     N      0.380800000000     0.039400000000     0.509250000000    -0.180157   
Ni1      Ni     0.353090000000     0.881110000000     0.007580000000     0.999266   
Ni2      Ni     0.409080000000     0.881300000000     0.006300000000     1.0013     
Ni3      Ni     0.353120000000     0.881110000000     0.256210000000     1.00296    
Ni4      Ni     0.409110000000     0.881260000000     0.257520000000     1.00533    
Ni5      Ni     0.353000000000     0.131980000000     0.011300000000     0.999404   
Ni6      Ni     0.409010000000     0.131780000000     0.010770000000     1.00175    
Ni7      Ni     0.353000000000     0.131930000000     0.261340000000     1.00357    
Ni8      Ni     0.409010000000     0.131800000000     0.260740000000     1.00489    
Ni9      Ni     0.881570000000     0.659970000000     0.999350000000     1.01436    
Ni10     Ni     0.881360000000     0.603990000000     0.998000000000     1.00663    
Ni11     Ni     0.881220000000     0.659800000000     0.247980000000     1.00331    
Ni12     Ni     0.881380000000     0.603810000000     0.249310000000     1.00508    
Ni13     Ni     0.132150000000     0.659670000000     0.002980000000     1.00011    
Ni14     Ni     0.132100000000     0.603690000000     0.004300000000     1.00025    
Ni15     Ni     0.132040000000     0.659700000000     0.254370000000     1.00275    
Ni16     Ni     0.131900000000     0.603720000000     0.253050000000     1.00523    
Ni17     Ni     0.659150000000     0.132130000000     0.012280000000     0.999927   
Ni18     Ni     0.603140000000     0.131850000000     0.011730000000     1.00064    
Ni19     Ni     0.659230000000     0.132200000000     0.262260000000     1.00266    
Ni20     Ni     0.603230000000     0.131850000000     0.261720000000     1.00506    
Ni21     Ni     0.660080000000     0.881480000000     0.005280000000     1.00194    
Ni22     Ni     0.604070000000     0.881220000000     0.004710000000     0.998832   
Ni23     Ni     0.660060000000     0.881390000000     0.255310000000     1.00391    
Ni24     Ni     0.604050000000     0.881310000000     0.254770000000     1.00372    
Ni25     Ni     0.379550000000     0.382270000000     0.036030000000     0.993846   
Ni26     Ni     0.382170000000     0.380200000000     0.480390000000     1.00516    
Ni27     Ni     0.379810000000     0.382080000000     0.286010000000     0.995836   
Ni28     Ni     0.381760000000     0.380370000000     0.230310000000     1.00916    
Ni29     Ni     0.382220000000     0.632450000000     0.478300000000     1.00329    
Ni30     Ni     0.380820000000     0.631200000000     0.034020000000     0.996458   
Ni31     Ni     0.380590000000     0.631230000000     0.226650000000     1.00245    
Ni32     Ni     0.382070000000     0.632410000000     0.282400000000     1.00331    
Ni33     Ni     0.632690000000     0.382380000000     0.037260000000     0.989287   
Ni34     Ni     0.630260000000     0.380370000000     0.481590000000     1.00991    
Ni35     Ni     0.632700000000     0.382920000000     0.283220000000     1.00148    
Ni36     Ni     0.630030000000     0.379780000000     0.227630000000     1.00187    
Ni37     Ni     0.633390000000     0.632800000000     0.031850000000     0.99796    
Ni38     Ni     0.631020000000     0.631220000000     0.476000000000     1.00741    
Ni39     Ni     0.632770000000     0.631320000000     0.277960000000     1.0097     
Ni40     Ni     0.631080000000     0.632580000000     0.222240000000     0.994822   
Ni41     Ni     0.131610000000     0.353060000000     0.000570000000     0.995287   
Ni42     Ni     0.131440000000     0.409060000000     0.001120000000     0.997114   
Ni43     Ni     0.131550000000     0.353020000000     0.250600000000     1.00386    
Ni44     Ni     0.131410000000     0.409020000000     0.251160000000     1.00428    
Ni45     Ni     0.880670000000     0.353060000000     0.999760000000     1.01686    
Ni46     Ni     0.880830000000     0.409060000000     0.000310000000     0.99116    
Ni47     Ni     0.880610000000     0.353120000000     0.249720000000     1.00272    
Ni48     Ni     0.880830000000     0.409120000000     0.250260000000     1.00532    
Ni49     Ni     0.353090000000     0.881110000000     0.507580000000     1.00304    
Ni50     Ni     0.409080000000     0.881300000000     0.506300000000     1.00511    
Ni51     Ni     0.353120000000     0.881110000000     0.756210000000     1.00312    
Ni52     Ni     0.409110000000     0.881260000000     0.757520000000     1.00533    
Ni53     Ni     0.353000000000     0.131980000000     0.511300000000     1.003      
Ni54     Ni     0.409010000000     0.131780000000     0.510770000000     1.00559    
Ni55     Ni     0.353000000000     0.131930000000     0.761340000000     1.00389    
Ni56     Ni     0.409010000000     0.131800000000     0.760750000000     1.00505    
Ni57     Ni     0.881570000000     0.659970000000     0.499350000000     1.00577    
Ni58     Ni     0.881360000000     0.603990000000     0.498000000000     1.00271    
Ni59     Ni     0.881220000000     0.659800000000     0.747980000000     1.0035     
Ni60     Ni     0.881380000000     0.603810000000     0.749310000000     1.00488    
Ni61     Ni     0.132150000000     0.659670000000     0.502980000000     1.00406    
Ni62     Ni     0.132100000000     0.603690000000     0.504300000000     1.00388    
Ni63     Ni     0.132040000000     0.659700000000     0.754370000000     1.00291    
Ni64     Ni     0.131900000000     0.603720000000     0.753050000000     1.00522    
Ni65     Ni     0.659150000000     0.132130000000     0.512280000000     1.00395    
Ni66     Ni     0.603140000000     0.131850000000     0.511730000000     1.00461    
Ni67     Ni     0.659230000000     0.132200000000     0.762260000000     1.00262    
Ni68     Ni     0.603230000000     0.131850000000     0.761720000000     1.00508    
Ni69     Ni     0.660080000000     0.881480000000     0.505280000000     1.00572    
Ni70     Ni     0.604070000000     0.881220000000     0.504710000000     1.00264    
Ni71     Ni     0.660060000000     0.881390000000     0.755310000000     1.00407    
Ni72     Ni     0.604050000000     0.881310000000     0.754770000000     1.00371    
Ni73     Ni     0.379550000000     0.382270000000     0.536030000000     0.998735   
Ni74     Ni     0.382170000000     0.380200000000     0.980390000000     1.00754    
Ni75     Ni     0.379810000000     0.382080000000     0.786010000000     0.996087   
Ni76     Ni     0.381760000000     0.380370000000     0.730310000000     1.00911    
Ni77     Ni     0.382220000000     0.632450000000     0.978300000000     1.00574    
Ni78     Ni     0.380820000000     0.631200000000     0.534020000000     1.00136    
Ni79     Ni     0.380590000000     0.631230000000     0.726650000000     1.00241    
Ni80     Ni     0.382070000000     0.632410000000     0.782400000000     1.00335    
Ni81     Ni     0.632690000000     0.382380000000     0.537260000000     0.994176   
Ni82     Ni     0.630260000000     0.380370000000     0.981590000000     1.0125     
Ni83     Ni     0.632700000000     0.382920000000     0.783220000000     1.00158    
Ni84     Ni     0.630030000000     0.379780000000     0.727630000000     1.00187    
Ni85     Ni     0.633390000000     0.632800000000     0.531860000000     1.00289    
Ni86     Ni     0.631030000000     0.631220000000     0.976000000000     1.0096     
Ni87     Ni     0.632770000000     0.631320000000     0.777960000000     1.00971    
Ni88     Ni     0.631080000000     0.632580000000     0.722240000000     0.99484    
Ni89     Ni     0.131610000000     0.353060000000     0.500570000000     1.00305    
Ni90     Ni     0.131440000000     0.409060000000     0.501120000000     1.00482    
Ni91     Ni     0.131550000000     0.353020000000     0.750600000000     1.00423    
Ni92     Ni     0.131410000000     0.409030000000     0.751160000000     1.00439    
Ni93     Ni     0.880670000000     0.353060000000     0.499760000000     1.00343    
Ni94     Ni     0.880830000000     0.409060000000     0.500310000000     1.00445    
Ni95     Ni     0.880610000000     0.353120000000     0.749720000000     1.00287    
Ni96     Ni     0.880830000000     0.409120000000     0.750260000000     1.00531    
O1       O      0.354780000000     0.926200000000     0.506010000000    -0.44703    
O2       O      0.355150000000     0.836050000000     0.009800000000    -0.446834   
O3       O      0.355820000000     0.882750000000     0.052290000000    -0.448698   
O4       O      0.354080000000     0.879490000000     0.462440000000    -0.445265   
O5       O      0.406340000000     0.882270000000     0.461550000000    -0.449338   
O6       O      0.408100000000     0.880320000000     0.051430000000    -0.44544    
O7       O      0.407350000000     0.836250000000     0.504760000000    -0.447636   
O8       O      0.407100000000     0.926340000000     0.007400000000    -0.448256   
O9       O      0.354820000000     0.926160000000     0.258400000000    -0.447184   
O10      O      0.355150000000     0.836080000000     0.253400000000    -0.446392   
O11      O      0.354110000000     0.878990000000     0.301340000000    -0.445065   
O12      O      0.355850000000     0.883250000000     0.211520000000    -0.449312   
O13      O      0.408130000000     0.880890000000     0.212380000000    -0.446193   
O14      O      0.406380000000     0.881630000000     0.302270000000    -0.449414   
O15      O      0.407360000000     0.836200000000     0.258360000000    -0.447694   
O16      O      0.407140000000     0.926320000000     0.257190000000    -0.448157   
O17      O      0.354710000000     0.086890000000     0.009600000000    -0.447342   
O18      O      0.355020000000     0.177040000000     0.513550000000    -0.446573   
O19      O      0.354830000000     0.133540000000     0.466220000000    -0.446171   
O20      O      0.354890000000     0.130400000000     0.056080000000    -0.448013   
O21      O      0.407190000000     0.132390000000     0.055860000000    -0.446253   
O22      O      0.407130000000     0.131200000000     0.465970000000    -0.448994   
O23      O      0.407310000000     0.176840000000     0.009570000000    -0.44856    
O24      O      0.407020000000     0.086730000000     0.511320000000    -0.448285   
O25      O      0.354740000000     0.086840000000     0.260170000000    -0.447241   
O26      O      0.354970000000     0.177010000000     0.263110000000    -0.446731   
O27      O      0.354780000000     0.133010000000     0.216230000000    -0.446087   
O28      O      0.354930000000     0.130850000000     0.306120000000    -0.448847   
O29      O      0.407240000000     0.132810000000     0.305840000000    -0.446537   
O30      O      0.407080000000     0.130790000000     0.215960000000    -0.449196   
O31      O      0.407270000000     0.176850000000     0.259120000000    -0.447502   
O32      O      0.407070000000     0.086740000000     0.261720000000    -0.447864   
O33      O      0.926610000000     0.658000000000     0.498310000000    -0.44812    
O34      O      0.836530000000     0.658240000000     0.001070000000    -0.454395   
O35      O      0.882680000000     0.657190000000     0.044070000000    -0.452989   
O36      O      0.880430000000     0.659010000000     0.454190000000    -0.445588   
O37      O      0.882850000000     0.606740000000     0.453290000000    -0.449412   
O38      O      0.879890000000     0.604930000000     0.043130000000    -0.448825   
O39      O      0.836290000000     0.606050000000     0.495910000000    -0.446379   
O40      O      0.926450000000     0.605680000000     0.999590000000    -0.446909   
O41      O      0.926310000000     0.658080000000     0.249690000000    -0.447049   
O42      O      0.836160000000     0.657760000000     0.245710000000    -0.446629   
O43      O      0.879600000000     0.658850000000     0.293110000000    -0.445477   
O44      O      0.882870000000     0.657050000000     0.203280000000    -0.449511   
O45      O      0.880490000000     0.604770000000     0.204160000000    -0.445913   
O46      O      0.882260000000     0.606580000000     0.294050000000    -0.449434   
O47      O      0.836330000000     0.605560000000     0.250720000000    -0.447722   
O48      O      0.926420000000     0.605750000000     0.248480000000    -0.448207   
O49      O      0.087070000000     0.657850000000     0.004150000000    -0.447451   
O50      O      0.177220000000     0.657760000000     0.501140000000    -0.446704   
O51      O      0.130870000000     0.656930000000     0.458270000000    -0.449592   
O52      O      0.133420000000     0.658710000000     0.048130000000    -0.444911   
O53      O      0.130860000000     0.606440000000     0.049040000000    -0.448567   
O54      O      0.133330000000     0.604650000000     0.459160000000    -0.445721   
O55      O      0.177150000000     0.605550000000     0.006130000000    -0.447428   
O56      O      0.087050000000     0.605520000000     0.502940000000    -0.447746   
O57      O      0.086980000000     0.658000000000     0.252330000000    -0.447148   
O58      O      0.177080000000     0.657680000000     0.257000000000    -0.446636   
O59      O      0.133990000000     0.658730000000     0.209230000000    -0.445056   
O60      O      0.130080000000     0.656950000000     0.299070000000    -0.449132   
O61      O      0.132460000000     0.604670000000     0.298180000000    -0.446217   
O62      O      0.131350000000     0.606460000000     0.208310000000    -0.449576   
O63      O      0.176960000000     0.605480000000     0.252010000000    -0.447697   
O64      O      0.086830000000     0.605670000000     0.253550000000    -0.447901   
O65      O      0.657500000000     0.087050000000     0.510610000000    -0.447296   
O66      O      0.657070000000     0.177190000000     0.014480000000    -0.44693    
O67      O      0.657250000000     0.130620000000     0.057060000000    -0.448228   
O68      O      0.657350000000     0.133630000000     0.467200000000    -0.446241   
O69      O      0.605060000000     0.131190000000     0.466920000000    -0.448828   
O70      O      0.604940000000     0.132530000000     0.056820000000    -0.446065   
O71      O      0.604780000000     0.176920000000     0.510460000000    -0.44753    
O72      O      0.605190000000     0.086780000000     0.012350000000    -0.44778    
O73      O      0.657650000000     0.087100000000     0.260710000000    -0.446952   
O74      O      0.657110000000     0.177280000000     0.264310000000    -0.446188   
O75      O      0.657330000000     0.130820000000     0.307060000000    -0.448405   
O76      O      0.657410000000     0.133570000000     0.217180000000    -0.446305   
O77      O      0.605130000000     0.131080000000     0.216930000000    -0.449195   
O78      O      0.605020000000     0.132650000000     0.306810000000    -0.446733   
O79      O      0.604820000000     0.176920000000     0.260320000000    -0.447503   
O80      O      0.605340000000     0.086790000000     0.262430000000    -0.447881   
O81      O      0.658040000000     0.926550000000     0.004950000000    -0.447805   
O82      O      0.658430000000     0.836410000000     0.506240000000    -0.447388   
O83      O      0.658290000000     0.881060000000     0.460190000000    -0.446644   
O84      O      0.658150000000     0.881880000000     0.050090000000    -0.448278   
O85      O      0.605870000000     0.879380000000     0.049790000000    -0.445531   
O86      O      0.605980000000     0.883070000000     0.459950000000    -0.448855   
O87      O      0.606140000000     0.836180000000     0.002060000000    -0.447103   
O88      O      0.605720000000     0.926280000000     0.506730000000    -0.44719    
O89      O      0.658140000000     0.926500000000     0.254700000000    -0.446912   
O90      O      0.658260000000     0.836290000000     0.256580000000    -0.4467     
O91      O      0.658250000000     0.880680000000     0.210210000000    -0.446395   
O92      O      0.658160000000     0.882090000000     0.300100000000    -0.448899   
O93      O      0.605860000000     0.879830000000     0.299850000000    -0.446547   
O94      O      0.605950000000     0.882800000000     0.209970000000    -0.448452   
O95      O      0.605970000000     0.836280000000     0.252540000000    -0.446957   
O96      O      0.605820000000     0.926370000000     0.256450000000    -0.447509   
O97      O      0.376590000000     0.337110000000     0.035430000000    -0.443721   
O98      O      0.382110000000     0.427000000000     0.032790000000    -0.447517   
O99      O      0.334730000000     0.385230000000     0.032010000000    -0.444619   
O100     O      0.424890000000     0.379850000000     0.036200000000    -0.441781   
O101     O      0.426790000000     0.383040000000     0.484150000000    -0.450308   
O102     O      0.337070000000     0.376930000000     0.480440000000    -0.446128   
O103     O      0.379430000000     0.425450000000     0.480690000000    -0.444746   
O104     O      0.385410000000     0.335430000000     0.483920000000    -0.447533   
O105     O      0.377030000000     0.336920000000     0.285090000000    -0.445124   
O106     O      0.382070000000     0.426860000000     0.283240000000    -0.44811    
O107     O      0.334880000000     0.384860000000     0.282550000000    -0.444827   
O108     O      0.425240000000     0.379850000000     0.285430000000    -0.441843   
O109     O      0.426340000000     0.383110000000     0.233360000000    -0.452184   
O110     O      0.336720000000     0.377140000000     0.230880000000    -0.447936   
O111     O      0.379140000000     0.425610000000     0.231140000000    -0.445637   
O112     O      0.384980000000     0.335550000000     0.233430000000    -0.447745   
O113     O      0.385350000000     0.677290000000     0.481080000000    -0.447385   
O114     O      0.379650000000     0.587180000000     0.479370000000    -0.444421   
O115     O      0.337100000000     0.635560000000     0.479360000000    -0.445854   
O116     O      0.426950000000     0.629870000000     0.481040000000    -0.449757   
O117     O      0.426120000000     0.633660000000     0.033090000000    -0.44241    
O118     O      0.335960000000     0.628150000000     0.031100000000    -0.445547   
O119     O      0.383320000000     0.586450000000     0.031420000000    -0.448218   
O120     O      0.377800000000     0.676340000000     0.032810000000    -0.444142   
O121     O      0.377710000000     0.676450000000     0.228080000000    -0.444605   
O122     O      0.382890000000     0.586370000000     0.229010000000    -0.448069   
O123     O      0.335810000000     0.628280000000     0.229450000000    -0.448208   
O124     O      0.425790000000     0.633530000000     0.227700000000    -0.44588    
O125     O      0.426920000000     0.630150000000     0.279780000000    -0.448167   
O126     O      0.336850000000     0.635270000000     0.281250000000    -0.445001   
O127     O      0.379770000000     0.587230000000     0.281110000000    -0.446091   
O128     O      0.384990000000     0.677200000000     0.279860000000    -0.448173   
O129     O      0.677610000000     0.385050000000     0.033370000000    -0.443051   
O130     O      0.587250000000     0.380220000000     0.037110000000    -0.4403     
O131     O      0.635360000000     0.337190000000     0.036550000000    -0.443396   
O132     O      0.630500000000     0.427170000000     0.034220000000    -0.44637    
O133     O      0.633110000000     0.425580000000     0.482120000000    -0.446009   
O134     O      0.626880000000     0.335590000000     0.484980000000    -0.447794   
O135     O      0.585710000000     0.383310000000     0.485040000000    -0.452092   
O136     O      0.675290000000     0.376950000000     0.481770000000    -0.44772    
O137     O      0.677460000000     0.385890000000     0.279140000000    -0.44714    
O138     O      0.587420000000     0.380390000000     0.283500000000    -0.444242   
O139     O      0.635730000000     0.337750000000     0.283520000000    -0.444931   
O140     O      0.630060000000     0.427570000000     0.279040000000    -0.449044   
O141     O      0.632710000000     0.425050000000     0.226980000000    -0.443999   
O142     O      0.626860000000     0.335070000000     0.232060000000    -0.446948   
O143     O      0.585370000000     0.382610000000     0.231400000000    -0.449336   
O144     O      0.675190000000     0.376600000000     0.227740000000    -0.445209   
O145     O      0.634140000000     0.677650000000     0.029130000000    -0.447357   
O146     O      0.633140000000     0.587560000000     0.030880000000    -0.44523    
O147     O      0.678280000000     0.633250000000     0.028300000000    -0.446201   
O148     O      0.588020000000     0.632940000000     0.031690000000    -0.443482   
O149     O      0.586270000000     0.631160000000     0.479560000000    -0.450996   
O150     O      0.676230000000     0.630720000000     0.476080000000    -0.446939   
O151     O      0.631270000000     0.586310000000     0.478730000000    -0.449009   
O152     O      0.630370000000     0.676530000000     0.476960000000    -0.445495   
O153     O      0.636070000000     0.676360000000     0.276820000000    -0.447451   
O154     O      0.629970000000     0.586680000000     0.275470000000    -0.451837   
O155     O      0.677560000000     0.628000000000     0.274930000000    -0.448157   
O156     O      0.587560000000     0.633990000000     0.277110000000    -0.446117   
O157     O      0.586270000000     0.630450000000     0.225050000000    -0.447599   
O158     O      0.676270000000     0.635280000000     0.223170000000    -0.444683   
O159     O      0.633220000000     0.587160000000     0.223390000000    -0.441721   
O160     O      0.628380000000     0.677540000000     0.225120000000    -0.444899   
O161     O      0.086500000000     0.354790000000     0.501470000000    -0.446939   
O162     O      0.176720000000     0.355040000000     0.999080000000    -0.439291   
O163     O      0.132510000000     0.354860000000     0.045670000000    -0.44536    
O164     O      0.130710000000     0.354950000000     0.455780000000    -0.448693   
O165     O      0.132730000000     0.407260000000     0.456040000000    -0.446593   
O166     O      0.130170000000     0.407150000000     0.045920000000    -0.448149   
O167     O      0.176480000000     0.407330000000     0.503100000000    -0.447462   
O168     O      0.086400000000     0.407100000000     0.999740000000    -0.441256   
O169     O      0.086450000000     0.354760000000     0.251460000000    -0.447289   
O170     O      0.176640000000     0.354980000000     0.249220000000    -0.446706   
O171     O      0.132370000000     0.354820000000     0.295690000000    -0.446341   
O172     O      0.130730000000     0.354930000000     0.205800000000    -0.448695   
O173     O      0.132800000000     0.407230000000     0.206070000000    -0.446578   
O174     O      0.130040000000     0.407120000000     0.295940000000    -0.448808   
O175     O      0.176450000000     0.407270000000     0.253280000000    -0.447222   
O176     O      0.086360000000     0.407070000000     0.249710000000    -0.447904   
O177     O      0.925770000000     0.354790000000     0.000420000000    -0.453832   
O178     O      0.835560000000     0.355030000000     0.498600000000    -0.446541   
O179     O      0.881270000000     0.354970000000     0.454940000000    -0.448411   
O180     O      0.880070000000     0.354860000000     0.044850000000    -0.449795   
O181     O      0.882410000000     0.407150000000     0.045080000000    -0.448134   
O182     O      0.879230000000     0.407280000000     0.455230000000    -0.446458   
O183     O      0.835790000000     0.407310000000     0.002650000000    -0.445644   
O184     O      0.925870000000     0.407100000000     0.498690000000    -0.447773   
O185     O      0.925720000000     0.354810000000     0.251080000000    -0.446851   
O186     O      0.835520000000     0.355150000000     0.247760000000    -0.446253   
O187     O      0.881940000000     0.355010000000     0.204940000000    -0.44874    
O188     O      0.879290000000     0.354930000000     0.294810000000    -0.446252   
O189     O      0.881650000000     0.407220000000     0.295070000000    -0.448924   
O190     O      0.880000000000     0.407320000000     0.205170000000    -0.446595   
O191     O      0.835790000000     0.407440000000     0.251730000000    -0.447809   
O192     O      0.925880000000     0.407120000000     0.249360000000    -0.4482     
O193     O      0.354780000000     0.926200000000     0.006010000000    -0.44724    
O194     O      0.355150000000     0.836050000000     0.509800000000    -0.446555   
O195     O      0.355820000000     0.882760000000     0.552290000000    -0.449283   
O196     O      0.354080000000     0.879490000000     0.962440000000    -0.442012   
O197     O      0.406340000000     0.882270000000     0.961550000000    -0.446115   
O198     O      0.408100000000     0.880320000000     0.551430000000    -0.446027   
O199     O      0.407350000000     0.836250000000     0.004760000000    -0.44845    
O200     O      0.407100000000     0.926340000000     0.507400000000    -0.448143   
O201     O      0.354820000000     0.926160000000     0.758400000000    -0.447124   
O202     O      0.355150000000     0.836080000000     0.753400000000    -0.446376   
O203     O      0.354110000000     0.878990000000     0.801340000000    -0.444971   
O204     O      0.355850000000     0.883250000000     0.711520000000    -0.449289   
O205     O      0.408130000000     0.880890000000     0.712380000000    -0.446196   
O206     O      0.406380000000     0.881630000000     0.802270000000    -0.449361   
O207     O      0.407360000000     0.836200000000     0.758360000000    -0.447706   
O208     O      0.407140000000     0.926320000000     0.757190000000    -0.44813    
O209     O      0.354710000000     0.086890000000     0.509600000000    -0.447136   
O210     O      0.355020000000     0.177040000000     0.013550000000    -0.446887   
O211     O      0.354830000000     0.133540000000     0.966220000000    -0.442944   
O212     O      0.354890000000     0.130400000000     0.556090000000    -0.44854    
O213     O      0.407190000000     0.132390000000     0.555860000000    -0.446888   
O214     O      0.407130000000     0.131200000000     0.965970000000    -0.445766   
O215     O      0.407310000000     0.176840000000     0.509570000000    -0.447742   
O216     O      0.407020000000     0.086730000000     0.011320000000    -0.448385   
O217     O      0.354740000000     0.086840000000     0.760170000000    -0.44717    
O218     O      0.354970000000     0.177010000000     0.763110000000    -0.446715   
O219     O      0.354780000000     0.133010000000     0.716240000000    -0.446108   
O220     O      0.354930000000     0.130850000000     0.806120000000    -0.4488     
O221     O      0.407240000000     0.132810000000     0.805840000000    -0.446609   
O222     O      0.407080000000     0.130800000000     0.715960000000    -0.449088   
O223     O      0.407270000000     0.176850000000     0.759130000000    -0.447516   
O224     O      0.407070000000     0.086750000000     0.761720000000    -0.447908   
O225     O      0.926610000000     0.658000000000     0.998310000000    -0.448563   
O226     O      0.836530000000     0.658240000000     0.501070000000    -0.447688   
O227     O      0.882680000000     0.657190000000     0.544070000000    -0.449573   
O228     O      0.880430000000     0.659010000000     0.954190000000    -0.446328   
O229     O      0.882850000000     0.606740000000     0.953290000000    -0.449904   
O230     O      0.879890000000     0.604930000000     0.543120000000    -0.445797   
O231     O      0.836290000000     0.606050000000     0.995910000000    -0.4471     
O232     O      0.926450000000     0.605680000000     0.499590000000    -0.447125   
O233     O      0.926310000000     0.658080000000     0.749700000000    -0.447012   
O234     O      0.836160000000     0.657760000000     0.745710000000    -0.446617   
O235     O      0.879600000000     0.658850000000     0.793110000000    -0.445396   
O236     O      0.882870000000     0.657050000000     0.703280000000    -0.449487   
O237     O      0.880490000000     0.604770000000     0.704160000000    -0.445872   
O238     O      0.882260000000     0.606580000000     0.794050000000    -0.449372   
O239     O      0.836330000000     0.605560000000     0.750720000000    -0.447703   
O240     O      0.926430000000     0.605750000000     0.748480000000    -0.448111   
O241     O      0.087070000000     0.657850000000     0.504150000000    -0.447299   
O242     O      0.177220000000     0.657760000000     0.001140000000    -0.447493   
O243     O      0.130870000000     0.656930000000     0.958270000000    -0.446322   
O244     O      0.133420000000     0.658710000000     0.548130000000    -0.445577   
O245     O      0.130860000000     0.606440000000     0.549040000000    -0.449268   
O246     O      0.133330000000     0.604650000000     0.959170000000    -0.442561   
O247     O      0.177150000000     0.605550000000     0.506120000000    -0.447164   
O248     O      0.087050000000     0.605520000000     0.002940000000    -0.448001   
O249     O      0.086980000000     0.658000000000     0.752330000000    -0.447085   
O250     O      0.177080000000     0.657680000000     0.757000000000    -0.44659    
O251     O      0.133990000000     0.658730000000     0.709230000000    -0.445019   
O252     O      0.130080000000     0.656950000000     0.799070000000    -0.449048   
O253     O      0.132460000000     0.604670000000     0.798180000000    -0.446164   
O254     O      0.131350000000     0.606460000000     0.708310000000    -0.449573   
O255     O      0.176960000000     0.605480000000     0.752010000000    -0.447685   
O256     O      0.086830000000     0.605670000000     0.753550000000    -0.447868   
O257     O      0.657510000000     0.087050000000     0.010610000000    -0.447314   
O258     O      0.657070000000     0.177190000000     0.514480000000    -0.446654   
O259     O      0.657250000000     0.130620000000     0.557050000000    -0.448885   
O260     O      0.657350000000     0.133630000000     0.967200000000    -0.442948   
O261     O      0.605060000000     0.131190000000     0.966920000000    -0.445573   
O262     O      0.604940000000     0.132530000000     0.556820000000    -0.446651   
O263     O      0.604780000000     0.176920000000     0.010460000000    -0.448305   
O264     O      0.605190000000     0.086790000000     0.512350000000    -0.447804   
O265     O      0.657650000000     0.087100000000     0.760710000000    -0.446862   
O266     O      0.657110000000     0.177280000000     0.764310000000    -0.446125   
O267     O      0.657330000000     0.130820000000     0.807060000000    -0.448277   
O268     O      0.657410000000     0.133570000000     0.717170000000    -0.446218   
O269     O      0.605130000000     0.131080000000     0.716930000000    -0.449242   
O270     O      0.605020000000     0.132650000000     0.806810000000    -0.44666    
O271     O      0.604820000000     0.176920000000     0.760320000000    -0.447489   
O272     O      0.605340000000     0.086790000000     0.762440000000    -0.447839   
O273     O      0.658040000000     0.926550000000     0.504950000000    -0.447612   
O274     O      0.658430000000     0.836410000000     0.006230000000    -0.447691   
O275     O      0.658290000000     0.881060000000     0.960190000000    -0.443379   
O276     O      0.658150000000     0.881880000000     0.550090000000    -0.448858   
O277     O      0.605870000000     0.879380000000     0.549790000000    -0.446119   
O278     O      0.605980000000     0.883070000000     0.959950000000    -0.445631   
O279     O      0.606140000000     0.836180000000     0.502060000000    -0.446291   
O280     O      0.605720000000     0.926280000000     0.006730000000    -0.447303   
O281     O      0.658140000000     0.926500000000     0.754700000000    -0.44685    
O282     O      0.658260000000     0.836290000000     0.756580000000    -0.446657   
O283     O      0.658250000000     0.880680000000     0.710210000000    -0.446365   
O284     O      0.658160000000     0.882090000000     0.800100000000    -0.448725   
O285     O      0.605860000000     0.879830000000     0.799850000000    -0.446404   
O286     O      0.605950000000     0.882800000000     0.709970000000    -0.448456   
O287     O      0.605970000000     0.836280000000     0.752540000000    -0.44694    
O288     O      0.605820000000     0.926370000000     0.756450000000    -0.447475   
O289     O      0.376590000000     0.337110000000     0.535430000000    -0.444943   
O290     O      0.382110000000     0.427000000000     0.532790000000    -0.448799   
O291     O      0.334730000000     0.385230000000     0.532010000000    -0.445891   
O292     O      0.424890000000     0.379850000000     0.536200000000    -0.443056   
O293     O      0.426790000000     0.383040000000     0.984140000000    -0.446643   
O294     O      0.337070000000     0.376930000000     0.980440000000    -0.442524   
O295     O      0.379430000000     0.425450000000     0.980690000000    -0.441177   
O296     O      0.385410000000     0.335430000000     0.983920000000    -0.443996   
O297     O      0.377030000000     0.336930000000     0.785090000000    -0.445207   
O298     O      0.382070000000     0.426860000000     0.783240000000    -0.448007   
O299     O      0.334880000000     0.384860000000     0.782550000000    -0.444808   
O300     O      0.425240000000     0.379860000000     0.785430000000    -0.441865   
O301     O      0.426340000000     0.383110000000     0.733360000000    -0.452185   
O302     O      0.336720000000     0.377140000000     0.730880000000    -0.447933   
O303     O      0.379140000000     0.425610000000     0.731140000000    -0.445735   
O304     O      0.384980000000     0.335550000000     0.733430000000    -0.447729   
O305     O      0.385350000000     0.677290000000     0.981080000000    -0.443858   
O306     O      0.379650000000     0.587180000000     0.979370000000    -0.44095    
O307     O      0.337100000000     0.635560000000     0.979360000000    -0.442253   
O308     O      0.426950000000     0.629870000000     0.981040000000    -0.446242   
O309     O      0.426120000000     0.633660000000     0.533090000000    -0.443651   
O310     O      0.335960000000     0.628150000000     0.531100000000    -0.446835   
O311     O      0.383320000000     0.586450000000     0.531420000000    -0.44961    
O312     O      0.377800000000     0.676340000000     0.532810000000    -0.445375   
O313     O      0.377710000000     0.676450000000     0.728080000000    -0.444596   
O314     O      0.382890000000     0.586370000000     0.729010000000    -0.448068   
O315     O      0.335810000000     0.628280000000     0.729450000000    -0.448193   
O316     O      0.425790000000     0.633530000000     0.727700000000    -0.445884   
O317     O      0.426920000000     0.630150000000     0.779780000000    -0.448142   
O318     O      0.336850000000     0.635280000000     0.781250000000    -0.444924   
O319     O      0.379770000000     0.587230000000     0.781110000000    -0.446073   
O320     O      0.384990000000     0.677200000000     0.779860000000    -0.44813    
O321     O      0.677610000000     0.385050000000     0.533370000000    -0.444295   
O322     O      0.587250000000     0.380220000000     0.537110000000    -0.441526   
O323     O      0.635360000000     0.337190000000     0.536550000000    -0.444612   
O324     O      0.630500000000     0.427170000000     0.534220000000    -0.447645   
O325     O      0.633110000000     0.425580000000     0.982120000000    -0.442478   
O326     O      0.626880000000     0.335590000000     0.984980000000    -0.444291   
O327     O      0.585720000000     0.383310000000     0.985040000000    -0.448671   
O328     O      0.675290000000     0.376950000000     0.981770000000    -0.444175   
O329     O      0.677460000000     0.385890000000     0.779140000000    -0.447111   
O330     O      0.587420000000     0.380390000000     0.783500000000    -0.444235   
O331     O      0.635730000000     0.337750000000     0.783510000000    -0.445078   
O332     O      0.630060000000     0.427570000000     0.779040000000    -0.449041   
O333     O      0.632710000000     0.425050000000     0.726980000000    -0.444002   
O334     O      0.626860000000     0.335070000000     0.732060000000    -0.446998   
O335     O      0.585370000000     0.382610000000     0.731400000000    -0.449336   
O336     O      0.675190000000     0.376600000000     0.727740000000    -0.445196   
O337     O      0.634140000000     0.677650000000     0.529130000000    -0.448663   
O338     O      0.633140000000     0.587560000000     0.530880000000    -0.446473   
O339     O      0.678280000000     0.633250000000     0.528300000000    -0.447498   
O340     O      0.588020000000     0.632940000000     0.531690000000    -0.444753   
O341     O      0.586270000000     0.631160000000     0.979560000000    -0.447358   
O342     O      0.676230000000     0.630720000000     0.976080000000    -0.443413   
O343     O      0.631270000000     0.586310000000     0.978730000000    -0.445499   
O344     O      0.630370000000     0.676530000000     0.976960000000    -0.441883   
O345     O      0.636070000000     0.676360000000     0.776820000000    -0.447411   
O346     O      0.629970000000     0.586680000000     0.775470000000    -0.451823   
O347     O      0.677560000000     0.628000000000     0.774930000000    -0.44802    
O348     O      0.587560000000     0.633990000000     0.777110000000    -0.446109   
O349     O      0.586270000000     0.630460000000     0.725050000000    -0.447613   
O350     O      0.676270000000     0.635280000000     0.723170000000    -0.444775   
O351     O      0.633220000000     0.587160000000     0.723390000000    -0.441731   
O352     O      0.628380000000     0.677540000000     0.725120000000    -0.444884   
O353     O      0.086500000000     0.354790000000     0.001470000000    -0.445411   
O354     O      0.176720000000     0.355040000000     0.499080000000    -0.44619    
O355     O      0.132510000000     0.354860000000     0.545670000000    -0.446154   
O356     O      0.130710000000     0.354960000000     0.955780000000    -0.445411   
O357     O      0.132730000000     0.407260000000     0.956040000000    -0.443237   
O358     O      0.130170000000     0.407150000000     0.545920000000    -0.448946   
O359     O      0.176480000000     0.407330000000     0.003100000000    -0.445924   
O360     O      0.086400000000     0.407100000000     0.499740000000    -0.44805    
O361     O      0.086450000000     0.354760000000     0.751460000000    -0.447264   
O362     O      0.176640000000     0.354990000000     0.749220000000    -0.446876   
O363     O      0.132370000000     0.354820000000     0.795690000000    -0.4463     
O364     O      0.130730000000     0.354930000000     0.705800000000    -0.448698   
O365     O      0.132790000000     0.407230000000     0.706070000000    -0.446615   
O366     O      0.130040000000     0.407120000000     0.795940000000    -0.448799   
O367     O      0.176450000000     0.407270000000     0.753280000000    -0.447314   
O368     O      0.086360000000     0.407070000000     0.749710000000    -0.4479     
O369     O      0.925770000000     0.354790000000     0.500430000000    -0.447056   
O370     O      0.835560000000     0.355030000000     0.998600000000    -0.4439     
O371     O      0.881270000000     0.354970000000     0.954940000000    -0.449258   
O372     O      0.880070000000     0.354860000000     0.544850000000    -0.446361   
O373     O      0.882410000000     0.407150000000     0.545080000000    -0.44898    
O374     O      0.879230000000     0.407280000000     0.955230000000    -0.443023   
O375     O      0.835790000000     0.407310000000     0.502650000000    -0.44721    
O376     O      0.925870000000     0.407100000000     0.998690000000    -0.445018   
O377     O      0.925720000000     0.354810000000     0.751080000000    -0.446792   
O378     O      0.835520000000     0.355150000000     0.747760000000    -0.446212   
O379     O      0.881940000000     0.355010000000     0.704940000000    -0.448691   
O380     O      0.879290000000     0.354930000000     0.794810000000    -0.446187   
O381     O      0.881650000000     0.407220000000     0.795070000000    -0.448885   
O382     O      0.880000000000     0.407320000000     0.705170000000    -0.446572   
O383     O      0.835790000000     0.407440000000     0.751730000000    -0.447794   
O384     O      0.925880000000     0.407120000000     0.749360000000    -0.448169   


