data_structure

_audit_creation_method RASPA-1.0
_audit_creation_date 2023-6-5
_audit_author_name 'Poobodin Mano'

_cell_length_a    34.8178
_cell_length_b    34.9049
_cell_length_c    41.5921
_cell_angle_alpha 89.9797
_cell_angle_beta  90.0203
_cell_angle_gamma 119.982
_cell_volume      43783.2

_symmetry_cell_setting          triclinic
_symmetry_space_group_name_Hall 'P 1'
_symmetry_space_group_name_H-M  'P 1'
_symmetry_Int_Tables_number     1

_symmetry_equiv_pos_as_xyz 'x,y,z'

loop_
_atom_site_label
_atom_site_type_symbol
_atom_site_fract_x
_atom_site_fract_y
_atom_site_fract_z
_atom_site_charge
C1       C      0.848610000000     0.678160000000     0.263930000000     0.43845    
C2       C      0.809050000000     0.681280000000     0.381240000000     0.436033   
C3       C      0.751640000000     0.646930000000     0.301080000000     0.438997   
C4       C      0.910910000000     0.715240000000     0.340610000000     0.434907   
C5       C      0.145990000000     0.828830000000     0.460390000000     0.434703   
C6       C      0.184130000000     0.866220000000     0.341910000000     0.4363     
C7       C      0.248050000000     0.891420000000     0.417320000000     0.431898   
C8       C      0.084430000000     0.803400000000     0.385320000000     0.431371   
C9       C      0.524860000000     0.023020000000     0.423590000000     0.436283   
C10      C      0.478600000000     0.014650000000     0.041200000000     0.435532   
C11      C      0.421000000000     0.978090000000     0.463300000000     0.434311   
C12      C      0.582720000000     0.059640000000     0.001090000000     0.435252   
C13      C      0.151240000000     0.340210000000     0.211180000000     0.435933   
C14      C      0.186380000000     0.334810000000     0.092520000000     0.436288   
C15      C      0.251630000000     0.375820000000     0.167050000000     0.433647   
C16      C      0.087080000000     0.298470000000     0.136280000000     0.436299   
C17      C      0.858940000000     0.198170000000     0.009060000000     0.435345   
C18      C      0.812670000000     0.162800000000     0.126850000000     0.432526   
C19      C      0.754550000000     0.141250000000     0.049480000000     0.432163   
C20      C      0.916190000000     0.219100000000     0.086570000000     0.432469   
C21      C      0.527950000000     0.534530000000     0.167030000000     0.436925   
C22      C      0.487160000000     0.497420000000     0.285380000000     0.432727   
C23      C      0.426200000000     0.469060000000     0.209650000000     0.431053   
C24      C      0.589160000000     0.563140000000     0.242250000000     0.431722   
C25      C      0.142280000000     0.344900000000     0.342960000000     0.432331   
C26      C      0.176730000000     0.333870000000     0.460900000000     0.43313    
C27      C      0.200580000000     0.301370000000     0.382470000000     0.437772   
C28      C      0.115370000000     0.377370000000     0.420270000000     0.435061   
C29      C      0.330470000000     0.159280000000     0.372330000000     0.43292    
C30      C      0.321370000000     0.194230000000     0.254190000000     0.433037   
C31      C      0.287550000000     0.218970000000     0.331010000000     0.434101   
C32      C      0.364450000000     0.133830000000     0.295640000000     0.436424   
C33      C      0.986580000000     0.525550000000     0.426340000000     0.435758   
C34      C      0.996590000000     0.489320000000     0.044100000000     0.432456   
C35      C      0.030470000000     0.465080000000     0.466690000000     0.432428   
C36      C      0.951570000000     0.547340000000     0.004620000000     0.436642   
C37      C      0.666680000000     0.868740000000     0.092180000000     0.43366    
C38      C      0.673450000000     0.833840000000     0.210660000000     0.434086   
C39      C      0.704340000000     0.805370000000     0.134490000000     0.435448   
C40      C      0.635330000000     0.898280000000     0.168700000000     0.436927   
C41      C      0.840670000000     0.667310000000     0.131990000000     0.43517    
C42      C      0.809710000000     0.678720000000     0.013080000000     0.433238   
C43      C      0.783040000000     0.711660000000     0.089170000000     0.438231   
C44      C      0.867350000000     0.633320000000     0.055170000000     0.433223   
C45      C      0.483510000000     0.019510000000     0.173030000000     0.432677   
C46      C      0.520910000000     0.017430000000     0.291720000000     0.432385   
C47      C      0.548000000000     0.982900000000     0.215790000000     0.43401    
C48      C      0.456250000000     0.053630000000     0.248920000000     0.433857   
C49      C      0.326040000000     0.157350000000     0.004330000000     0.43534    
C50      C      0.322720000000     0.196240000000     0.122370000000     0.436439   
C51      C      0.363090000000     0.258020000000     0.046320000000     0.433308   
C52      C      0.284530000000     0.095000000000     0.080630000000     0.434215   
C53      C      0.518190000000     0.529770000000     0.035730000000     0.433797   
C54      C      0.479890000000     0.489110000000     0.417460000000     0.435341   
C55      C      0.453290000000     0.427470000000     0.994640000000     0.431471   
C56      C      0.543270000000     0.589460000000     0.459770000000     0.432092   
C57      C      0.178890000000     0.866500000000     0.209950000000     0.434599   
C58      C      0.140980000000     0.823590000000     0.092110000000     0.436918   
C59      C      0.116720000000     0.763740000000     0.169270000000     0.431795   
C60      C      0.201890000000     0.925240000000     0.132470000000     0.430751   
C61      C      0.993720000000     0.531130000000     0.294500000000     0.432247   
C62      C      0.995160000000     0.492090000000     0.176200000000     0.435077   
C63      C      0.958570000000     0.430550000000     0.252650000000     0.432594   
C64      C      0.030130000000     0.592750000000     0.218270000000     0.434216   
C65      C      0.813980000000     0.160240000000     0.258900000000     0.436256   
C66      C      0.853790000000     0.198110000000     0.377360000000     0.431988   
C67      C      0.877280000000     0.260090000000     0.302000000000     0.435088   
C68      C      0.790810000000     0.096970000000     0.334450000000     0.433062   
C69      C      0.669750000000     0.864740000000     0.460070000000     0.437012   
C70      C      0.669790000000     0.824540000000     0.342020000000     0.436578   
C71      C      0.633060000000     0.763620000000     0.417290000000     0.434351   
C72      C      0.708190000000     0.925960000000     0.382790000000     0.436765   
C73      C      0.726340000000     0.033550000000     0.355310000000     0.0314228  
C74      C      0.791900000000     0.031200000000     0.346430000000     0.017054   
C75      C      0.706040000000     0.990410000000     0.367540000000     0.0317615  
C76      C      0.772030000000     0.988220000000     0.358570000000     0.0698628  
C77      C      0.894340000000     0.363940000000     0.268310000000     0.0306693  
C78      C      0.964520000000     0.370120000000     0.273630000000     0.0181639  
C79      C      0.874590000000     0.321820000000     0.281720000000     0.0305595  
C80      C      0.944910000000     0.327510000000     0.286990000000     0.0689142  
C81      C      0.116090000000     0.698190000000     0.185570000000     0.0301193  
C82      C      0.050490000000     0.701720000000     0.189070000000     0.0183419  
C83      C      0.094160000000     0.655830000000     0.198690000000     0.0292253  
C84      C      0.027920000000     0.658840000000     0.202080000000     0.0682446  
C85      C      0.545300000000     0.656270000000     0.445500000000     0.0309413  
C86      C      0.610640000000     0.652220000000     0.442160000000     0.018023   
C87      C      0.568040000000     0.699560000000     0.434280000000     0.029975   
C88      C      0.634060000000     0.696090000000     0.431010000000     0.0677964  
C89      C      0.267190000000     0.989990000000     0.113930000000     0.0316325  
C90      C      0.198000000000     0.986360000000     0.111560000000     0.0160656  
C91      C      0.287320000000     0.032570000000     0.100610000000     0.0303365  
C92      C      0.217420000000     0.028200000000     0.097310000000     0.0690396  
C93      C      0.450880000000     0.361430000000     0.012210000000     0.0301878  
C94      C      0.386520000000     0.367220000000     0.015470000000     0.0181634  
C95      C      0.428220000000     0.319630000000     0.026270000000     0.0290134  
C96      C      0.363260000000     0.325000000000     0.029460000000     0.0685598  
C97      C      0.711920000000     0.848120000000     0.260500000000     0.0311128  
C98      C      0.635280000000     0.796780000000     0.258260000000     0.0174334  
C99      C      0.710910000000     0.843730000000     0.293900000000     0.0322917  
C100     C      0.633640000000     0.793850000000     0.291810000000     0.071191   
C101     C      0.705720000000     0.896320000000     0.043010000000     0.0309287  
C102     C      0.627800000000     0.852830000000     0.042710000000     0.0186009  
C103     C      0.706140000000     0.893530000000     0.009530000000     0.0323644  
C104     C      0.627700000000     0.851550000000     0.009080000000     0.069395   
C105     C      0.767650000000     0.801150000000     0.119170000000     0.0316036  
C106     C      0.697120000000     0.737270000000     0.116540000000     0.0187187  
C107     C      0.786690000000     0.777410000000     0.107150000000     0.0310012  
C108     C      0.716020000000     0.712840000000     0.104600000000     0.0698329  
C109     C      0.549820000000     0.918400000000     0.201000000000     0.0313487  
C110     C      0.614980000000     0.987610000000     0.196600000000     0.0188204  
C111     C      0.571810000000     0.897880000000     0.188450000000     0.0310582  
C112     C      0.637750000000     0.967060000000     0.184110000000     0.0689919  
C113     C      0.029450000000     0.554590000000     0.345070000000     0.0312402  
C114     C      0.951580000000     0.520150000000     0.342150000000     0.016834   
C115     C      0.027140000000     0.554150000000     0.378510000000     0.0318279  
C116     C      0.948860000000     0.517350000000     0.375840000000     0.0706024  
C117     C      0.958800000000     0.459550000000     0.093430000000     0.0308314  
C118     C      0.036350000000     0.506180000000     0.093230000000     0.0185524  
C119     C      0.958720000000     0.461980000000     0.126950000000     0.0322963  
C120     C      0.036890000000     0.507170000000     0.126880000000     0.0694811  
C121     C      0.932300000000     0.634840000000     0.034970000000     0.0312826  
C122     C      0.865840000000     0.567010000000     0.040400000000     0.0170478  
C123     C      0.952900000000     0.612710000000     0.022030000000     0.0307675  
C124     C      0.886040000000     0.544500000000     0.027530000000     0.0694907  
C125     C      0.291890000000     0.127860000000     0.421040000000     0.0306379  
C126     C      0.369360000000     0.175110000000     0.421890000000     0.0179944  
C127     C      0.290990000000     0.128800000000     0.454550000000     0.0322243  
C128     C      0.369100000000     0.174420000000     0.455570000000     0.0691729  
C129     C      0.359120000000     0.225600000000     0.205260000000     0.0306418  
C130     C      0.281360000000     0.180490000000     0.205300000000     0.017678   
C131     C      0.359110000000     0.224830000000     0.171730000000     0.0323346  
C132     C      0.280780000000     0.181780000000     0.171640000000     0.0693514  
C133     C      0.452810000000     0.117370000000     0.263990000000     0.0308994  
C134     C      0.388630000000     0.047280000000     0.267720000000     0.0185557  
C135     C      0.429610000000     0.136800000000     0.276460000000     0.0303325  
C136     C      0.364770000000     0.066580000000     0.280160000000     0.0687297  
C137     C      0.095720000000     0.464500000000     0.450460000000     0.0306261  
C138     C      0.026780000000     0.398720000000     0.448350000000     0.0181626  
C139     C      0.116340000000     0.442130000000     0.438260000000     0.029765   
C140     C      0.047150000000     0.375810000000     0.436140000000     0.0684399  
C141     C      0.289160000000     0.283240000000     0.352540000000     0.0313195  
C142     C      0.221010000000     0.217800000000     0.344570000000     0.0170361  
C143     C      0.266710000000     0.303400000000     0.365720000000     0.0310035  
C144     C      0.198220000000     0.237620000000     0.357410000000     0.069703   
C145     C      0.493320000000     0.465360000000     0.334200000000     0.0307649  
C146     C      0.458790000000     0.508640000000     0.334140000000     0.0180263  
C147     C      0.491960000000     0.464200000000     0.367750000000     0.0315359  
C148     C      0.455420000000     0.506000000000     0.367710000000     0.0685086  
C149     C      0.505450000000     0.554560000000     0.085650000000     0.0306591  
C150     C      0.555150000000     0.527270000000     0.083050000000     0.0168355  
C151     C      0.509780000000     0.557410000000     0.118990000000     0.0324829  
C152     C      0.557950000000     0.528020000000     0.116640000000     0.0716359  
C153     C      0.842340000000     0.223270000000     0.427430000000     0.0306715  
C154     C      0.886890000000     0.190070000000     0.425070000000     0.016797   
C155     C      0.845400000000     0.224650000000     0.460840000000     0.0318644  
C156     C      0.887910000000     0.188960000000     0.458790000000     0.0710605  
C157     C      0.818300000000     0.130410000000     0.175590000000     0.0304459  
C158     C      0.790360000000     0.179520000000     0.176320000000     0.0186345  
C159     C      0.820120000000     0.131380000000     0.209140000000     0.0322941  
C160     C      0.789770000000     0.178800000000     0.209990000000     0.0693487  
C161     C      0.115310000000     0.305900000000     0.293770000000     0.0307349  
C162     C      0.161530000000     0.383350000000     0.293250000000     0.0180197  
C163     C      0.119770000000     0.304890000000     0.260460000000     0.0326927  
C164     C      0.164500000000     0.382930000000     0.259700000000     0.0697326  
C165     C      0.211790000000     0.370430000000     0.009370000000     0.030538   
C166     C      0.163390000000     0.293330000000     0.009610000000     0.017491   
C167     C      0.213420000000     0.370350000000     0.042830000000     0.0324574  
C168     C      0.166920000000     0.292570000000     0.043180000000     0.0690333  
C169     C      0.982330000000     0.283220000000     0.104150000000     0.0318811  
C170     C      0.976510000000     0.213230000000     0.107260000000     0.017195   
C171     C      0.025090000000     0.302530000000     0.117010000000     0.0314398  
C172     C      0.018720000000     0.231960000000     0.121050000000     0.0697207  
C173     C      0.358500000000     0.465130000000     0.194880000000     0.0300881  
C174     C      0.364000000000     0.400700000000     0.192570000000     0.0181899  
C175     C      0.315210000000     0.441590000000     0.183550000000     0.0290667  
C176     C      0.320070000000     0.376460000000     0.181270000000     0.0684034  
C177     C      0.507690000000     0.980690000000     0.342050000000     0.0304473  
C178     C      0.553460000000     0.058170000000     0.339570000000     0.0168938  
C179     C      0.510500000000     0.982490000000     0.375510000000     0.0319854  
C180     C      0.554350000000     0.060460000000     0.373240000000     0.0715174  
C181     C      0.496340000000     0.056570000000     0.122860000000     0.0312972  
C182     C      0.450490000000     0.979090000000     0.125150000000     0.0174523  
C183     C      0.493210000000     0.054980000000     0.089400000000     0.0321175  
C184     C      0.449270000000     0.977010000000     0.091470000000     0.0707793  
C185     C      0.689570000000     0.077230000000     0.030410000000     0.0317025  
C186     C      0.691250000000     0.145350000000     0.033230000000     0.0171007  
C187     C      0.646540000000     0.057370000000     0.018050000000     0.0310136  
C188     C      0.648220000000     0.125890000000     0.020660000000     0.0689243  
C189     C      0.210880000000     0.858980000000     0.258290000000     0.0310613  
C190     C      0.164800000000     0.890510000000     0.259570000000     0.0186242  
C191     C      0.210630000000     0.857560000000     0.291830000000     0.0321415  
C192     C      0.166100000000     0.891240000000     0.293180000000     0.0695376  
C193     C      0.152630000000     0.797230000000     0.009250000000     0.0311628  
C194     C      0.117790000000     0.840290000000     0.008920000000     0.0185297  
C195     C      0.152180000000     0.797180000000     0.042810000000     0.0321301  
C196     C      0.115250000000     0.838670000000     0.042450000000     0.069402   
C197     C      0.311380000000     0.956670000000     0.437270000000     0.0309641  
C198     C      0.315100000000     0.891980000000     0.428650000000     0.0167474  
C199     C      0.354960000000     0.977950000000     0.448870000000     0.0306398  
C200     C      0.358660000000     0.912910000000     0.440100000000     0.0688867  
C201     C      0.777480000000     0.643280000000     0.463560000000     0.0306472  
C202     C      0.826260000000     0.720290000000     0.464760000000     0.0183423  
C203     C      0.778330000000     0.644300000000     0.430040000000     0.031931   
C204     C      0.825660000000     0.721980000000     0.431120000000     0.069095   
C205     C      0.813420000000     0.638370000000     0.216920000000     0.0292153  
C206     C      0.883050000000     0.704210000000     0.213980000000     0.0207215  
C207     C      0.812270000000     0.635960000000     0.183280000000     0.031841   
C208     C      0.883140000000     0.700570000000     0.180540000000     0.0690421  
C209     C      0.645000000000     0.625400000000     0.270370000000     0.0302146  
C210     C      0.662030000000     0.573850000000     0.247280000000     0.0158235  
C211     C      0.686150000000     0.646280000000     0.285680000000     0.0347675  
C212     C      0.704300000000     0.596070000000     0.261280000000     0.0769355  
C213     C      0.017930000000     0.801880000000     0.370480000000     0.0291519  
C214     C      0.020960000000     0.736070000000     0.368470000000     0.0181773  
C215     C      0.974840000000     0.779460000000     0.358700000000     0.0286797  
C216     C      0.977190000000     0.712950000000     0.356820000000     0.0679763  
C217     C      0.848610000000     0.678160000000     0.763930000000     0.438453   
C218     C      0.809050000000     0.681280000000     0.881240000000     0.436136   
C219     C      0.751640000000     0.646930000000     0.801080000000     0.439001   
C220     C      0.910910000000     0.715240000000     0.840610000000     0.434911   
C221     C      0.145990000000     0.828830000000     0.960400000000     0.434814   
C222     C      0.184130000000     0.866220000000     0.841910000000     0.436201   
C223     C      0.248050000000     0.891420000000     0.917320000000     0.431993   
C224     C      0.084430000000     0.803400000000     0.885320000000     0.431573   
C225     C      0.524870000000     0.023020000000     0.923590000000     0.436354   
C226     C      0.478590000000     0.014650000000     0.541200000000     0.435512   
C227     C      0.420990000000     0.978090000000     0.963300000000     0.434239   
C228     C      0.582720000000     0.059640000000     0.501090000000     0.435195   
C229     C      0.151240000000     0.340210000000     0.711180000000     0.435839   
C230     C      0.186380000000     0.334810000000     0.592520000000     0.436292   
C231     C      0.251630000000     0.375820000000     0.667040000000     0.433669   
C232     C      0.087080000000     0.298470000000     0.636280000000     0.436305   
C233     C      0.858940000000     0.198170000000     0.509060000000     0.43543    
C234     C      0.812670000000     0.162800000000     0.626850000000     0.432506   
C235     C      0.754550000000     0.141250000000     0.549480000000     0.432278   
C236     C      0.916190000000     0.219100000000     0.586570000000     0.432473   
C237     C      0.527950000000     0.534530000000     0.667030000000     0.436901   
C238     C      0.487160000000     0.497420000000     0.785380000000     0.432515   
C239     C      0.426200000000     0.469060000000     0.709650000000     0.431248   
C240     C      0.589160000000     0.563140000000     0.742250000000     0.431495   
C241     C      0.142280000000     0.344900000000     0.842960000000     0.432216   
C242     C      0.176730000000     0.333870000000     0.960910000000     0.4332     
C243     C      0.200580000000     0.301370000000     0.882470000000     0.437778   
C244     C      0.115370000000     0.377370000000     0.920270000000     0.434898   
C245     C      0.330470000000     0.159280000000     0.872340000000     0.432862   
C246     C      0.321370000000     0.194230000000     0.754200000000     0.432999   
C247     C      0.287550000000     0.218970000000     0.831010000000     0.434251   
C248     C      0.364450000000     0.133830000000     0.795640000000     0.436348   
C249     C      0.986580000000     0.525550000000     0.926340000000     0.435603   
C250     C      0.996590000000     0.489320000000     0.544110000000     0.432197   
C251     C      0.030470000000     0.465080000000     0.966690000000     0.43249    
C252     C      0.951570000000     0.547340000000     0.504620000000     0.436751   
C253     C      0.666680000000     0.868740000000     0.592180000000     0.433654   
C254     C      0.673450000000     0.833840000000     0.710660000000     0.433952   
C255     C      0.704340000000     0.805370000000     0.634490000000     0.43541    
C256     C      0.635330000000     0.898280000000     0.668700000000     0.436933   
C257     C      0.840670000000     0.667310000000     0.631990000000     0.435036   
C258     C      0.809710000000     0.678720000000     0.513080000000     0.433098   
C259     C      0.783040000000     0.711660000000     0.589170000000     0.438236   
C260     C      0.867340000000     0.633320000000     0.555170000000     0.433297   
C261     C      0.483520000000     0.019510000000     0.673030000000     0.432699   
C262     C      0.520910000000     0.017430000000     0.791710000000     0.432486   
C263     C      0.548000000000     0.982910000000     0.715790000000     0.434065   
C264     C      0.456250000000     0.053630000000     0.748920000000     0.43386    
C265     C      0.326040000000     0.157350000000     0.504330000000     0.435312   
C266     C      0.322720000000     0.196240000000     0.622370000000     0.43644    
C267     C      0.363090000000     0.258020000000     0.546320000000     0.433307   
C268     C      0.284530000000     0.095000000000     0.580630000000     0.434213   
C269     C      0.518190000000     0.529770000000     0.535730000000     0.433763   
C270     C      0.479890000000     0.489110000000     0.917460000000     0.435454   
C271     C      0.453290000000     0.427470000000     0.494640000000     0.431456   
C272     C      0.543270000000     0.589470000000     0.959770000000     0.432426   
C273     C      0.178890000000     0.866500000000     0.709950000000     0.434588   
C274     C      0.140980000000     0.823590000000     0.592100000000     0.436609   
C275     C      0.116720000000     0.763750000000     0.669270000000     0.431914   
C276     C      0.201890000000     0.925240000000     0.632470000000     0.430652   
C277     C      0.993710000000     0.531130000000     0.794490000000     0.432294   
C278     C      0.995160000000     0.492090000000     0.676200000000     0.434838   
C279     C      0.958570000000     0.430550000000     0.752650000000     0.43257    
C280     C      0.030130000000     0.592750000000     0.718270000000     0.43419    
C281     C      0.813980000000     0.160240000000     0.758890000000     0.435935   
C282     C      0.853790000000     0.198110000000     0.877360000000     0.432175   
C283     C      0.877280000000     0.260090000000     0.802010000000     0.435303   
C284     C      0.790810000000     0.096970000000     0.834450000000     0.433065   
C285     C      0.669760000000     0.864740000000     0.960070000000     0.43715    
C286     C      0.669790000000     0.824550000000     0.842020000000     0.436688   
C287     C      0.633060000000     0.763620000000     0.917290000000     0.43416    
C288     C      0.708190000000     0.925960000000     0.882790000000     0.436509   
C289     C      0.726350000000     0.033550000000     0.855310000000     0.0314983  
C290     C      0.791900000000     0.031200000000     0.846430000000     0.0170682  
C291     C      0.706040000000     0.990410000000     0.867540000000     0.0317423  
C292     C      0.772030000000     0.988220000000     0.858570000000     0.0698348  
C293     C      0.894340000000     0.363940000000     0.768310000000     0.0307334  
C294     C      0.964520000000     0.370120000000     0.773630000000     0.0181023  
C295     C      0.874590000000     0.321820000000     0.781720000000     0.0305386  
C296     C      0.944910000000     0.327510000000     0.786990000000     0.0689381  
C297     C      0.116090000000     0.698190000000     0.685570000000     0.0300921  
C298     C      0.050480000000     0.701720000000     0.689070000000     0.018241   
C299     C      0.094160000000     0.655840000000     0.698690000000     0.0292561  
C300     C      0.027920000000     0.658840000000     0.702080000000     0.0682894  
C301     C      0.545300000000     0.656270000000     0.945500000000     0.0309578  
C302     C      0.610640000000     0.652220000000     0.942160000000     0.0180519  
C303     C      0.568040000000     0.699560000000     0.934280000000     0.0299695  
C304     C      0.634060000000     0.696090000000     0.931010000000     0.0677775  
C305     C      0.267190000000     0.989990000000     0.613930000000     0.0316478  
C306     C      0.198000000000     0.986360000000     0.611560000000     0.0160604  
C307     C      0.287320000000     0.032570000000     0.600610000000     0.0303275  
C308     C      0.217420000000     0.028200000000     0.597310000000     0.0690402  
C309     C      0.450880000000     0.361430000000     0.512210000000     0.0301682  
C310     C      0.386520000000     0.367230000000     0.515470000000     0.0181339  
C311     C      0.428220000000     0.319630000000     0.526270000000     0.0290192  
C312     C      0.363260000000     0.325000000000     0.529460000000     0.0685729  
C313     C      0.711920000000     0.848120000000     0.760500000000     0.0311264  
C314     C      0.635280000000     0.796780000000     0.758250000000     0.0174742  
C315     C      0.710910000000     0.843740000000     0.793900000000     0.0322764  
C316     C      0.633640000000     0.793850000000     0.791810000000     0.0711735  
C317     C      0.705710000000     0.896310000000     0.543010000000     0.0310214  
C318     C      0.627800000000     0.852830000000     0.542710000000     0.0186188  
C319     C      0.706140000000     0.893530000000     0.509530000000     0.0322738  
C320     C      0.627710000000     0.851550000000     0.509080000000     0.0693763  
C321     C      0.767650000000     0.801150000000     0.619170000000     0.0315928  
C322     C      0.697120000000     0.737270000000     0.616540000000     0.0187152  
C323     C      0.786690000000     0.777410000000     0.607150000000     0.031016   
C324     C      0.716020000000     0.712840000000     0.604600000000     0.0698344  
C325     C      0.549820000000     0.918400000000     0.701010000000     0.0313622  
C326     C      0.614980000000     0.987600000000     0.696600000000     0.0188241  
C327     C      0.571810000000     0.897880000000     0.688450000000     0.0310526  
C328     C      0.637750000000     0.967060000000     0.684110000000     0.0689845  
C329     C      0.029450000000     0.554590000000     0.845070000000     0.03123    
C330     C      0.951580000000     0.520150000000     0.842150000000     0.0168083  
C331     C      0.027140000000     0.554150000000     0.878510000000     0.0318498  
C332     C      0.948860000000     0.517350000000     0.875840000000     0.0706166  
C333     C      0.958800000000     0.459550000000     0.593420000000     0.0308785  
C334     C      0.036350000000     0.506180000000     0.593230000000     0.018554   
C335     C      0.958720000000     0.461980000000     0.626950000000     0.0322803  
C336     C      0.036890000000     0.507180000000     0.626880000000     0.0694725  
C337     C      0.932290000000     0.634840000000     0.534970000000     0.0313192  
C338     C      0.865840000000     0.567010000000     0.540400000000     0.017031   
C339     C      0.952900000000     0.612710000000     0.522030000000     0.0307603  
C340     C      0.886040000000     0.544500000000     0.527530000000     0.0694947  
C341     C      0.291890000000     0.127860000000     0.921040000000     0.03065    
C342     C      0.369360000000     0.175110000000     0.921890000000     0.01801    
C343     C      0.290990000000     0.128800000000     0.954550000000     0.032216   
C344     C      0.369100000000     0.174420000000     0.955570000000     0.0691659  
C345     C      0.359120000000     0.225600000000     0.705260000000     0.0306158  
C346     C      0.281360000000     0.180490000000     0.705300000000     0.0176617  
C347     C      0.359110000000     0.224830000000     0.671730000000     0.0323448  
C348     C      0.280780000000     0.181780000000     0.671640000000     0.0693575  
C349     C      0.452810000000     0.117370000000     0.763990000000     0.0309027  
C350     C      0.388630000000     0.047280000000     0.767720000000     0.018552   
C351     C      0.429610000000     0.136800000000     0.776460000000     0.0303325  
C352     C      0.364770000000     0.066580000000     0.780150000000     0.0687264  
C353     C      0.095720000000     0.464500000000     0.950460000000     0.0305875  
C354     C      0.026780000000     0.398720000000     0.948350000000     0.0181958  
C355     C      0.116340000000     0.442130000000     0.938260000000     0.0297731  
C356     C      0.047150000000     0.375810000000     0.936140000000     0.0684136  
C357     C      0.289160000000     0.283240000000     0.852540000000     0.0313248  
C358     C      0.221010000000     0.217800000000     0.844570000000     0.0170458  
C359     C      0.266710000000     0.303400000000     0.865720000000     0.0310005  
C360     C      0.198220000000     0.237620000000     0.857410000000     0.0696994  
C361     C      0.493320000000     0.465360000000     0.834200000000     0.030696   
C362     C      0.458790000000     0.508650000000     0.834140000000     0.0179518  
C363     C      0.491960000000     0.464210000000     0.867760000000     0.0316775  
C364     C      0.455420000000     0.506010000000     0.867710000000     0.0685138  
C365     C      0.505450000000     0.554560000000     0.585640000000     0.0307831  
C366     C      0.555150000000     0.527270000000     0.583050000000     0.0168003  
C367     C      0.509780000000     0.557420000000     0.618990000000     0.0323859  
C368     C      0.557950000000     0.528020000000     0.616650000000     0.0716785  
C369     C      0.842340000000     0.223270000000     0.927430000000     0.0306825  
C370     C      0.886890000000     0.190070000000     0.925070000000     0.0168297  
C371     C      0.845400000000     0.224650000000     0.960840000000     0.0318559  
C372     C      0.887920000000     0.188960000000     0.958780000000     0.070982   
C373     C      0.818300000000     0.130410000000     0.675590000000     0.0304533  
C374     C      0.790360000000     0.179520000000     0.676320000000     0.0186347  
C375     C      0.820120000000     0.131380000000     0.709140000000     0.0322837  
C376     C      0.789770000000     0.178800000000     0.709990000000     0.0693556  
C377     C      0.115310000000     0.305900000000     0.793770000000     0.0307376  
C378     C      0.161530000000     0.383350000000     0.793250000000     0.0180335  
C379     C      0.119770000000     0.304890000000     0.760460000000     0.0326936  
C380     C      0.164490000000     0.382930000000     0.759690000000     0.0697566  
C381     C      0.211790000000     0.370430000000     0.509370000000     0.0303672  
C382     C      0.163390000000     0.293330000000     0.509610000000     0.0174689  
C383     C      0.213420000000     0.370350000000     0.542830000000     0.0325712  
C384     C      0.166920000000     0.292570000000     0.543180000000     0.0689911  
C385     C      0.982330000000     0.283220000000     0.604150000000     0.0318821  
C386     C      0.976510000000     0.213230000000     0.607260000000     0.0171863  
C387     C      0.025090000000     0.302530000000     0.617010000000     0.0314399  
C388     C      0.018720000000     0.231960000000     0.621050000000     0.0697226  
C389     C      0.358510000000     0.465130000000     0.694880000000     0.0301755  
C390     C      0.364000000000     0.400700000000     0.692570000000     0.0182354  
C391     C      0.315210000000     0.441590000000     0.683550000000     0.029027   
C392     C      0.320070000000     0.376450000000     0.681270000000     0.0683403  
C393     C      0.507690000000     0.980690000000     0.842050000000     0.0304288  
C394     C      0.553460000000     0.058170000000     0.839570000000     0.0168752  
C395     C      0.510500000000     0.982490000000     0.875510000000     0.0320245  
C396     C      0.554350000000     0.060460000000     0.873240000000     0.0715249  
C397     C      0.496340000000     0.056570000000     0.622860000000     0.0312949  
C398     C      0.450490000000     0.979090000000     0.625150000000     0.0174499  
C399     C      0.493210000000     0.054980000000     0.589400000000     0.0321194  
C400     C      0.449270000000     0.977010000000     0.591470000000     0.0707797  
C401     C      0.689570000000     0.077230000000     0.530410000000     0.0317115  
C402     C      0.691250000000     0.145350000000     0.533230000000     0.0171186  
C403     C      0.646540000000     0.057370000000     0.518050000000     0.0310078  
C404     C      0.648210000000     0.125890000000     0.520660000000     0.0689203  
C405     C      0.210880000000     0.858980000000     0.758290000000     0.0310632  
C406     C      0.164800000000     0.890510000000     0.759570000000     0.018601   
C407     C      0.210630000000     0.857560000000     0.791830000000     0.0321386  
C408     C      0.166100000000     0.891240000000     0.793180000000     0.069546   
C409     C      0.152630000000     0.797230000000     0.509250000000     0.031127   
C410     C      0.117790000000     0.840290000000     0.508920000000     0.0183753  
C411     C      0.152180000000     0.797180000000     0.542810000000     0.0321442  
C412     C      0.115250000000     0.838670000000     0.542450000000     0.0694538  
C413     C      0.311380000000     0.956670000000     0.937270000000     0.0310128  
C414     C      0.315100000000     0.891980000000     0.928640000000     0.0167545  
C415     C      0.354960000000     0.977960000000     0.948860000000     0.0305545  
C416     C      0.358660000000     0.912910000000     0.940100000000     0.0688908  
C417     C      0.777480000000     0.643290000000     0.963560000000     0.0307212  
C418     C      0.826260000000     0.720290000000     0.964760000000     0.0183357  
C419     C      0.778320000000     0.644300000000     0.930040000000     0.0319176  
C420     C      0.825650000000     0.721970000000     0.931120000000     0.0691044  
C421     C      0.813420000000     0.638370000000     0.716920000000     0.0292119  
C422     C      0.883050000000     0.704210000000     0.713980000000     0.0207246  
C423     C      0.812270000000     0.635960000000     0.683280000000     0.0318438  
C424     C      0.883140000000     0.700570000000     0.680540000000     0.0690364  
C425     C      0.645000000000     0.625400000000     0.770370000000     0.0301603  
C426     C      0.662030000000     0.573850000000     0.747280000000     0.0158139  
C427     C      0.686150000000     0.646280000000     0.785670000000     0.0348126  
C428     C      0.704300000000     0.596070000000     0.761280000000     0.076936   
C429     C      0.017930000000     0.801870000000     0.870480000000     0.029179   
C430     C      0.020960000000     0.736070000000     0.868470000000     0.0182547  
C431     C      0.974840000000     0.779460000000     0.858700000000     0.0286566  
C432     C      0.977190000000     0.712950000000     0.856820000000     0.0679461  
H1       H      0.672030000000     0.975890000000     0.375770000000     0.040308   
H2       H      0.707180000000     0.050260000000     0.354500000000     0.040507   
H3       H      0.825770000000     0.045900000000     0.337810000000     0.0443022  
H4       H      0.828330000000     0.968740000000     0.382540000000     0.0398021  
H5       H      0.838750000000     0.304300000000     0.283890000000     0.0387889  
H6       H      0.872870000000     0.376800000000     0.261480000000     0.0382891  
H7       H      0.000350000000     0.388740000000     0.271250000000     0.0461151  
H8       H      0.993450000000     0.322760000000     0.331690000000     0.0381221  
H9       H      0.113420000000     0.639410000000     0.201560000000     0.0375018  
H10      H      0.150870000000     0.712200000000     0.179580000000     0.0375892  
H11      H      0.032350000000     0.719270000000     0.185940000000     0.0427792  
H12      H      0.944800000000     0.617200000000     0.188150000000     0.0416184  
H13      H      0.549150000000     0.716440000000     0.431970000000     0.0394522  
H14      H      0.510300000000     0.642170000000     0.450770000000     0.0387904  
H15      H      0.628310000000     0.634110000000     0.944700000000     0.0445333  
H16      H      0.693050000000     0.706850000000     0.389150000000     0.0410464  
H17      H      0.322920000000     0.049330000000     0.097040000000     0.0412824  
H18      H      0.287970000000     0.976000000000     0.119870000000     0.0393403  
H19      H      0.162360000000     0.968950000000     0.115240000000     0.0424932  
H20      H      0.174440000000     0.067990000000     0.112290000000     0.0389609  
H21      H      0.446620000000     0.302390000000     0.029610000000     0.0370352  
H22      H      0.485450000000     0.374360000000     0.006030000000     0.037662   
H23      H      0.369200000000     0.385540000000     0.512050000000     0.0451108  
H24      H      0.279520000000     0.285020000000     0.517380000000     0.0413351  
H25      H      0.741550000000     0.863580000000     0.307030000000     0.0370442  
H26      H      0.743410000000     0.870280000000     0.249150000000     0.0381604  
H27      H      0.604810000000     0.777100000000     0.244900000000     0.0439021  
H28      H      0.581440000000     0.715070000000     0.312420000000     0.0372838  
H29      H      0.738050000000     0.909880000000     0.997470000000     0.03673    
H30      H      0.737280000000     0.913840000000     0.055410000000     0.0376911  
H31      H      0.596270000000     0.835720000000     0.055260000000     0.0432063  
H32      H      0.558300000000     0.846520000000     0.983090000000     0.0386093  
H33      H      0.822410000000     0.795430000000     0.104200000000     0.0400359  
H34      H      0.789490000000     0.835910000000     0.124440000000     0.0386631  
H35      H      0.661430000000     0.720540000000     0.119780000000     0.0458932  
H36      H      0.664550000000     0.653440000000     0.064140000000     0.0420588  
H37      H      0.552590000000     0.862170000000     0.186190000000     0.0394636  
H38      H      0.515130000000     0.897510000000     0.207180000000     0.0389201  
H39      H      0.632760000000     0.023320000000     0.199220000000     0.0452886  
H40      H      0.720790000000     0.008460000000     0.198320000000     0.040817   
H41      H      0.058120000000     0.567750000000     0.391680000000     0.0372578  
H42      H      0.061930000000     0.569090000000     0.333960000000     0.037725   
H43      H      0.921060000000     0.506760000000     0.328420000000     0.0429494  
H44      H      0.876800000000     0.451350000000     0.397120000000     0.0419483  
H45      H      0.927060000000     0.444270000000     0.139240000000     0.0366249  
H46      H      0.927200000000     0.440920000000     0.081210000000     0.0378019  
H47      H      0.067580000000     0.524730000000     0.080470000000     0.0429517  
H48      H      0.096260000000     0.583300000000     0.147910000000     0.0382628  
H49      H      0.987410000000     0.632590000000     0.015040000000     0.0403427  
H50      H      0.951770000000     0.670500000000     0.037400000000     0.0403532  
H51      H      0.831370000000     0.547690000000     0.047700000000     0.0439954  
H52      H      0.830530000000     0.472930000000     0.498340000000     0.0387759  
H53      H      0.259080000000     0.110400000000     0.466430000000     0.0359785  
H54      H      0.260570000000     0.109410000000     0.408440000000     0.0376808  
H55      H      0.400810000000     0.194440000000     0.409560000000     0.0424822  
H56      H      0.427800000000     0.249620000000     0.478280000000     0.0382082  
H57      H      0.390850000000     0.242390000000     0.159520000000     0.0369087  
H58      H      0.390820000000     0.243070000000     0.217500000000     0.0376216  
H59      H      0.250100000000     0.162200000000     0.218050000000     0.0421463  
H60      H      0.211930000000     0.180330000000     0.147890000000     0.0368878  
H61      H      0.447860000000     0.172500000000     0.279040000000     0.0388248  
H62      H      0.487500000000     0.138910000000     0.258120000000     0.0381087  
H63      H      0.371600000000     0.011610000000     0.264890000000     0.0452732  
H64      H      0.307760000000     0.016700000000     0.322510000000     0.0417165  
H65      H      0.151980000000     0.461300000000     0.435010000000     0.0387607  
H66      H      0.116300000000     0.499480000000     0.455620000000     0.0378209  
H67      H      0.991110000000     0.380560000000     0.451800000000     0.0453834  
H68      H      0.996670000000     0.315880000000     0.395610000000     0.0386368  
H69      H      0.286510000000     0.337290000000     0.373930000000     0.0397135  
H70      H      0.325030000000     0.302350000000     0.351100000000     0.0397112  
H71      H      0.201630000000     0.184020000000     0.335980000000     0.0442677  
H72      H      0.123550000000     0.181160000000     0.382700000000     0.0388846  
H73      H      0.506000000000     0.446560000000     0.379980000000     0.0366836  
H74      H      0.508850000000     0.449140000000     0.322010000000     0.0378712  
H75      H      0.445720000000     0.526880000000     0.321460000000     0.0426897  
H76      H      0.386810000000     0.506550000000     0.389970000000     0.0377084  
H77      H      0.490640000000     0.569010000000     0.132160000000     0.0366247  
H78      H      0.484020000000     0.564960000000     0.074430000000     0.037956   
H79      H      0.574160000000     0.515860000000     0.069510000000     0.043319   
H80      H      0.636460000000     0.552490000000     0.137230000000     0.0378544  
H81      H      0.827980000000     0.238320000000     0.473830000000     0.0366142  
H82      H      0.823530000000     0.236680000000     0.416080000000     0.0370089  
H83      H      0.904090000000     0.176610000000     0.411550000000     0.042488   
H84      H      0.963210000000     0.204560000000     0.480980000000     0.0385804  
H85      H      0.832720000000     0.112260000000     0.221110000000     0.0350973  
H86      H      0.830330000000     0.111260000000     0.163020000000     0.0374614  
H87      H      0.779220000000     0.199620000000     0.163940000000     0.0427756  
H88      H      0.728260000000     0.189140000000     0.235440000000     0.0384332  
H89      H      0.102890000000     0.272990000000     0.248530000000     0.036772   
H90      H      0.096160000000     0.274660000000     0.306260000000     0.037948   
H91      H      0.179300000000     0.414850000000     0.305670000000     0.0425209  
H92      H      0.241920000000     0.441480000000     0.239940000000     0.0382212  
H93      H      0.233180000000     0.401820000000     0.054920000000     0.0364264  
H94      H      0.229930000000     0.401990000000     0.997120000000     0.0376551  
H95      H      0.142920000000     0.262390000000     0.997040000000     0.0418528  
H96      H      0.162750000000     0.222000000000     0.065600000000     0.0368697  
H97      H      0.042740000000     0.338140000000     0.120090000000     0.0420151  
H98      H      0.969160000000     0.304640000000     0.098070000000     0.0405647  
H99      H      0.958020000000     0.177600000000     0.104050000000     0.0438838  
H100     H      0.056410000000     0.186740000000     0.106720000000     0.0384898  
H101     H      0.297740000000     0.459860000000     0.180860000000     0.0377035  
H102     H      0.371960000000     0.500050000000     0.199800000000     0.0379006  
H103     H      0.382730000000     0.383720000000     0.195520000000     0.0450708  
H104     H      0.281090000000     0.294370000000     0.197740000000     0.0417227  
H105     H      0.492450000000     0.951600000000     0.388620000000     0.0346854  
H106     H      0.488420000000     0.948560000000     0.330750000000     0.0370078  
H107     H      0.571270000000     0.088730000000     0.326040000000     0.0429801  
H108     H      0.563790000000     0.133330000000     0.395690000000     0.0421702  
H109     H      0.511210000000     0.085940000000     0.076360000000     0.037563   
H110     H      0.515740000000     0.088620000000     0.134230000000     0.0378525  
H111     H      0.432730000000     0.948460000000     0.138600000000     0.0434449  
H112     H      0.373360000000     0.918570000000     0.069380000000     0.0383498  
H113     H      0.630690000000     0.022390000000     0.012470000000     0.0413656  
H114     H      0.704540000000     0.056730000000     0.033740000000     0.0407839  
H115     H      0.707940000000     0.180330000000     0.039030000000     0.043611   
H116     H      0.635530000000     0.180430000000     0.487010000000     0.0386267  
H117     H      0.228830000000     0.843750000000     0.303570000000     0.0356155  
H118     H      0.228550000000     0.845440000000     0.245500000000     0.0375862  
H119     H      0.145670000000     0.903010000000     0.247420000000     0.0430993  
H120     H      0.091500000000     0.875780000000     0.316930000000     0.0396609  
H121     H      0.166720000000     0.780140000000     0.055240000000     0.0361954  
H122     H      0.168110000000     0.780940000000     0.997090000000     0.0372675  
H123     H      0.104390000000     0.858120000000     0.996100000000     0.0428001  
H124     H      0.124820000000     0.911400000000     0.065230000000     0.039293   
H125     H      0.368950000000     0.011960000000     0.956760000000     0.0408383  
H126     H      0.293980000000     0.975160000000     0.436610000000     0.0398832  
H127     H      0.300700000000     0.858060000000     0.420390000000     0.0441996  
H128     H      0.406660000000     0.890010000000     0.407420000000     0.0357373  
H129     H      0.759200000000     0.613220000000     0.417330000000     0.0361213  
H130     H      0.758290000000     0.611480000000     0.475300000000     0.0374356  
H131     H      0.846040000000     0.750880000000     0.477910000000     0.0432112  
H132     H      0.901170000000     0.781060000000     0.408850000000     0.0387766  
H133     H      0.782620000000     0.609320000000     0.172400000000     0.0393652  
H134     H      0.783430000000     0.614460000000     0.230580000000     0.0447483  
H135     H      0.911510000000     0.731180000000     0.225890000000     0.0370668  
H136     H      0.960360000000     0.720690000000     0.159360000000     0.0380047  
H137     H      0.694140000000     0.674280000000     0.301200000000     0.0359903  
H138     H      0.622780000000     0.638240000000     0.274550000000     0.0390618  
H139     H      0.653950000000     0.546260000000     0.231300000000     0.0431634  
H140     H      0.751310000000     0.556280000000     0.267960000000     0.048699   
H141     H      0.958470000000     0.798740000000     0.355690000000     0.0372175  
H142     H      0.032390000000     0.836930000000     0.375370000000     0.0365906  
H143     H      0.038590000000     0.718040000000     0.371800000000     0.0455663  
H144     H      0.935250000000     0.631170000000     0.373980000000     0.0420411  
H145     H      0.672030000000     0.975890000000     0.875770000000     0.0403068  
H146     H      0.707180000000     0.050260000000     0.854500000000     0.040483   
H147     H      0.825770000000     0.045900000000     0.837810000000     0.0442984  
H148     H      0.828330000000     0.968740000000     0.882540000000     0.0397966  
H149     H      0.838750000000     0.304300000000     0.783890000000     0.0387994  
H150     H      0.872870000000     0.376800000000     0.761480000000     0.0382768  
H151     H      0.000350000000     0.388740000000     0.771250000000     0.0461358  
H152     H      0.993450000000     0.322760000000     0.831690000000     0.03812    
H153     H      0.113420000000     0.639410000000     0.701560000000     0.0375024  
H154     H      0.150870000000     0.712200000000     0.679580000000     0.0375932  
H155     H      0.032350000000     0.719270000000     0.685940000000     0.0428162  
H156     H      0.944800000000     0.617190000000     0.688150000000     0.0416265  
H157     H      0.549150000000     0.716440000000     0.931970000000     0.0394565  
H158     H      0.510300000000     0.642170000000     0.950770000000     0.0387694  
H159     H      0.628310000000     0.634110000000     0.444700000000     0.0445472  
H160     H      0.693050000000     0.706850000000     0.889150000000     0.0410401  
H161     H      0.322920000000     0.049330000000     0.597040000000     0.0412825  
H162     H      0.287980000000     0.976000000000     0.619870000000     0.03933    
H163     H      0.162360000000     0.968950000000     0.615240000000     0.0424922  
H164     H      0.174440000000     0.067990000000     0.612290000000     0.0389621  
H165     H      0.446620000000     0.302390000000     0.529610000000     0.0370289  
H166     H      0.485450000000     0.374370000000     0.506030000000     0.0376644  
H167     H      0.369200000000     0.385540000000     0.012050000000     0.0451131  
H168     H      0.279520000000     0.285020000000     0.017380000000     0.0413394  
H169     H      0.741550000000     0.863580000000     0.807030000000     0.0370463  
H170     H      0.743410000000     0.870280000000     0.749150000000     0.038156   
H171     H      0.604810000000     0.777100000000     0.744900000000     0.0438849  
H172     H      0.581450000000     0.715070000000     0.812420000000     0.0372816  
H173     H      0.738050000000     0.909880000000     0.497470000000     0.03677    
H174     H      0.737280000000     0.913840000000     0.555410000000     0.0376637  
H175     H      0.596260000000     0.835720000000     0.555260000000     0.0431909  
H176     H      0.558300000000     0.846520000000     0.483090000000     0.0386132  
H177     H      0.822420000000     0.795430000000     0.604200000000     0.0400308  
H178     H      0.789490000000     0.835910000000     0.624440000000     0.0386659  
H179     H      0.661430000000     0.720540000000     0.619780000000     0.0458953  
H180     H      0.664560000000     0.653440000000     0.564140000000     0.0420604  
H181     H      0.552590000000     0.862170000000     0.686190000000     0.0394648  
H182     H      0.515130000000     0.897500000000     0.707180000000     0.0389103  
H183     H      0.632760000000     0.023320000000     0.699220000000     0.0452923  
H184     H      0.720790000000     0.008460000000     0.698320000000     0.0408198  
H185     H      0.058130000000     0.567750000000     0.891680000000     0.0372446  
H186     H      0.061930000000     0.569090000000     0.833960000000     0.0377357  
H187     H      0.921060000000     0.506770000000     0.828420000000     0.0429587  
H188     H      0.876800000000     0.451350000000     0.897120000000     0.041946   
H189     H      0.927060000000     0.444270000000     0.639240000000     0.0366337  
H190     H      0.927200000000     0.440920000000     0.581210000000     0.0377794  
H191     H      0.067580000000     0.524730000000     0.580480000000     0.042931   
H192     H      0.096260000000     0.583300000000     0.647910000000     0.0382707  
H193     H      0.987410000000     0.632600000000     0.515040000000     0.0403322  
H194     H      0.951770000000     0.670490000000     0.537400000000     0.040332   
H195     H      0.831370000000     0.547690000000     0.547700000000     0.0439995  
H196     H      0.830530000000     0.472930000000     0.998340000000     0.0387581  
H197     H      0.259080000000     0.110400000000     0.966430000000     0.0359705  
H198     H      0.260570000000     0.109410000000     0.908440000000     0.0376689  
H199     H      0.400810000000     0.194440000000     0.909560000000     0.0424745  
H200     H      0.427800000000     0.249620000000     0.978280000000     0.0382002  
H201     H      0.390850000000     0.242390000000     0.659520000000     0.0369069  
H202     H      0.390820000000     0.243070000000     0.717500000000     0.0376255  
H203     H      0.250100000000     0.162200000000     0.718050000000     0.0421568  
H204     H      0.211930000000     0.180330000000     0.647890000000     0.0368882  
H205     H      0.447860000000     0.172500000000     0.779040000000     0.0388342  
H206     H      0.487500000000     0.138910000000     0.758120000000     0.0381107  
H207     H      0.371600000000     0.011610000000     0.764890000000     0.0452768  
H208     H      0.307760000000     0.016700000000     0.822510000000     0.0417139  
H209     H      0.151980000000     0.461300000000     0.935010000000     0.038756   
H210     H      0.116300000000     0.499480000000     0.955630000000     0.0378315  
H211     H      0.991110000000     0.380560000000     0.951800000000     0.0453741  
H212     H      0.996670000000     0.315880000000     0.895610000000     0.0386266  
H213     H      0.286510000000     0.337290000000     0.873930000000     0.0397135  
H214     H      0.325030000000     0.302350000000     0.851100000000     0.039708   
H215     H      0.201630000000     0.184020000000     0.835980000000     0.0442678  
H216     H      0.123550000000     0.181160000000     0.882700000000     0.0388809  
H217     H      0.506000000000     0.446550000000     0.879970000000     0.036624   
H218     H      0.508850000000     0.449140000000     0.822010000000     0.0378931  
H219     H      0.445720000000     0.526880000000     0.821460000000     0.0427118  
H220     H      0.386810000000     0.506550000000     0.889970000000     0.0377092  
H221     H      0.490640000000     0.569010000000     0.632160000000     0.0366544  
H222     H      0.484020000000     0.564960000000     0.574430000000     0.0379182  
H223     H      0.574160000000     0.515860000000     0.569510000000     0.0433238  
H224     H      0.636460000000     0.552490000000     0.637230000000     0.0378588  
H225     H      0.827980000000     0.238320000000     0.973830000000     0.0365998  
H226     H      0.823530000000     0.236680000000     0.916080000000     0.0370027  
H227     H      0.904090000000     0.176610000000     0.911540000000     0.0424779  
H228     H      0.963210000000     0.204560000000     0.980980000000     0.0385728  
H229     H      0.832710000000     0.112260000000     0.721110000000     0.0351031  
H230     H      0.830330000000     0.111260000000     0.663020000000     0.0374618  
H231     H      0.779220000000     0.199620000000     0.663940000000     0.0427788  
H232     H      0.728260000000     0.189140000000     0.735440000000     0.0384371  
H233     H      0.102890000000     0.272990000000     0.748540000000     0.036767   
H234     H      0.096160000000     0.274660000000     0.806260000000     0.037943   
H235     H      0.179300000000     0.414850000000     0.805670000000     0.0425153  
H236     H      0.241920000000     0.441480000000     0.739940000000     0.038229   
H237     H      0.233180000000     0.401820000000     0.554920000000     0.0363937  
H238     H      0.229930000000     0.401990000000     0.497120000000     0.0377273  
H239     H      0.142920000000     0.262390000000     0.497040000000     0.0418832  
H240     H      0.162750000000     0.222000000000     0.565600000000     0.0368678  
H241     H      0.042740000000     0.338140000000     0.620090000000     0.0420159  
H242     H      0.969160000000     0.304640000000     0.598070000000     0.0405662  
H243     H      0.958010000000     0.177600000000     0.604050000000     0.043893   
H244     H      0.056410000000     0.186740000000     0.606720000000     0.0384922  
H245     H      0.297740000000     0.459860000000     0.680860000000     0.0377169  
H246     H      0.371960000000     0.500050000000     0.699800000000     0.0378759  
H247     H      0.382730000000     0.383720000000     0.695520000000     0.0450541  
H248     H      0.281090000000     0.294370000000     0.697740000000     0.0417255  
H249     H      0.492450000000     0.951590000000     0.888620000000     0.0346829  
H250     H      0.488420000000     0.948560000000     0.830750000000     0.037017   
H251     H      0.571270000000     0.088730000000     0.826040000000     0.042992   
H252     H      0.563790000000     0.133330000000     0.895690000000     0.0421729  
H253     H      0.511200000000     0.085940000000     0.576360000000     0.0375635  
H254     H      0.515740000000     0.088620000000     0.634230000000     0.0378565  
H255     H      0.432730000000     0.948460000000     0.638600000000     0.0434453  
H256     H      0.373360000000     0.918570000000     0.569380000000     0.0383456  
H257     H      0.630690000000     0.022390000000     0.512470000000     0.0413602  
H258     H      0.704540000000     0.056730000000     0.533740000000     0.0407814  
H259     H      0.707940000000     0.180330000000     0.539030000000     0.0436038  
H260     H      0.635530000000     0.180430000000     0.987010000000     0.0386008  
H261     H      0.228830000000     0.843750000000     0.803570000000     0.0356148  
H262     H      0.228550000000     0.845440000000     0.745500000000     0.0375875  
H263     H      0.145680000000     0.903010000000     0.747420000000     0.0431129  
H264     H      0.091500000000     0.875780000000     0.816930000000     0.0396513  
H265     H      0.166720000000     0.780140000000     0.555240000000     0.0361884  
H266     H      0.168110000000     0.780940000000     0.497090000000     0.0373052  
H267     H      0.104390000000     0.858120000000     0.496100000000     0.0428611  
H268     H      0.124820000000     0.911400000000     0.565230000000     0.0392946  
H269     H      0.368950000000     0.011960000000     0.456760000000     0.0408192  
H270     H      0.293980000000     0.975160000000     0.936610000000     0.0398712  
H271     H      0.300710000000     0.858060000000     0.920390000000     0.044181   
H272     H      0.406660000000     0.890010000000     0.907420000000     0.0357429  
H273     H      0.759200000000     0.613220000000     0.917330000000     0.0361203  
H274     H      0.758290000000     0.611470000000     0.975300000000     0.0374018  
H275     H      0.846040000000     0.750880000000     0.977910000000     0.0431998  
H276     H      0.901170000000     0.781060000000     0.908850000000     0.0387795  
H277     H      0.782620000000     0.609320000000     0.672400000000     0.0393777  
H278     H      0.783430000000     0.614470000000     0.730580000000     0.0447498  
H279     H      0.911510000000     0.731180000000     0.725890000000     0.0370674  
H280     H      0.960360000000     0.720690000000     0.659360000000     0.0380114  
H281     H      0.694140000000     0.674280000000     0.801200000000     0.0359798  
H282     H      0.622780000000     0.638230000000     0.774550000000     0.0390863  
H283     H      0.653950000000     0.546260000000     0.731300000000     0.0431705  
H284     H      0.751300000000     0.556280000000     0.767960000000     0.0487173  
H285     H      0.958470000000     0.798740000000     0.855690000000     0.0372235  
H286     H      0.032390000000     0.836930000000     0.875370000000     0.0365726  
H287     H      0.038590000000     0.718040000000     0.871800000000     0.0455403  
H288     H      0.935260000000     0.631170000000     0.873980000000     0.0420374  
N1       N      0.769450000000     0.054020000000     0.345150000000    -0.177963   
N2       N      0.728950000000     0.967940000000     0.369970000000    -0.185273   
N3       N      0.939270000000     0.388180000000     0.264370000000    -0.178077   
N4       N      0.899350000000     0.302960000000     0.290740000000    -0.184753   
N5       N      0.094390000000     0.721250000000     0.180900000000    -0.178164   
N6       N      0.050010000000     0.635540000000     0.206760000000    -0.184244   
N7       N      0.566480000000     0.632530000000     0.449410000000    -0.178202   
N8       N      0.612480000000     0.720100000000     0.427240000000    -0.184234   
N9       N      0.222610000000     0.967190000000     0.119750000000    -0.177854   
N10      N      0.262870000000     0.052190000000     0.092350000000    -0.183608   
N11      N      0.430140000000     0.385320000000     0.006900000000    -0.177718   
N12      N      0.384260000000     0.300700000000     0.034530000000    -0.184207   
N13      N      0.673770000000     0.825870000000     0.242890000000    -0.178054   
N14      N      0.671380000000     0.819190000000     0.309580000000    -0.186907   
N15      N      0.666700000000     0.873840000000     0.059530000000    -0.178409   
N16      N      0.667430000000     0.870530000000     0.992510000000    -0.18563    
N17      N      0.722920000000     0.781210000000     0.123730000000    -0.178904   
N18      N      0.761430000000     0.733220000000     0.099950000000    -0.185021   
N19      N      0.571140000000     0.963230000000     0.204870000000    -0.178445   
N20      N      0.615790000000     0.921600000000     0.180050000000    -0.184588   
N21      N      0.991630000000     0.536270000000     0.326980000000    -0.178085   
N22      N      0.986980000000     0.532960000000     0.393910000000    -0.18613    
N23      N      0.997330000000     0.483770000000     0.076660000000    -0.178258   
N24      N      0.997420000000     0.486430000000     0.143720000000    -0.185355   
N25      N      0.888650000000     0.611950000000     0.043830000000    -0.178363   
N26      N      0.929950000000     0.567670000000     0.017720000000    -0.184884   
N27      N      0.330730000000     0.153090000000     0.404830000000    -0.178442   
N28      N      0.329240000000     0.152710000000     0.471870000000    -0.185775   
N29      N      0.320530000000     0.201020000000     0.221850000000    -0.178602   
N30      N      0.320300000000     0.201840000000     0.154830000000    -0.185587   
N31      N      0.432480000000     0.072640000000     0.259800000000    -0.178677   
N32      N      0.385540000000     0.111950000000     0.284440000000    -0.184721   
N33      N      0.050980000000     0.442840000000     0.455470000000    -0.178219   
N34      N      0.092600000000     0.397740000000     0.431240000000    -0.184418   
N35      N      0.266230000000     0.240240000000     0.342440000000    -0.178597   
N36      N      0.221380000000     0.280600000000     0.368870000000    -0.185559   
N37      N      0.479010000000     0.489690000000     0.317640000000    -0.178446   
N38      N      0.474250000000     0.485450000000     0.384670000000    -0.185308   
N39      N      0.526780000000     0.537860000000     0.067890000000    -0.178431   
N40      N      0.533290000000     0.541150000000     0.134540000000    -0.186797   
N41      N      0.861810000000     0.204640000000     0.409690000000    -0.178415   
N42      N      0.865420000000     0.204780000000     0.476570000000    -0.185988   
N43      N      0.805880000000     0.156540000000     0.159320000000    -0.178028   
N44      N      0.806690000000     0.156050000000     0.226360000000    -0.185751   
N45      N      0.138270000000     0.344860000000     0.310200000000    -0.178486   
N46      N      0.144800000000     0.343100000000     0.243420000000    -0.18561    
N47      N      0.184570000000     0.332370000000     0.993020000000    -0.178626   
N48      N      0.189960000000     0.331860000000     0.059880000000    -0.185782   
N49      N      0.958350000000     0.238660000000     0.098910000000    -0.178079   
N50      N      0.043860000000     0.277370000000     0.125310000000    -0.184168   
N51      N      0.383030000000     0.444860000000     0.199350000000    -0.177814   
N52      N      0.295330000000     0.397180000000     0.176950000000    -0.184219   
N53      N      0.528060000000     0.018640000000     0.324200000000    -0.177847   
N54      N      0.531240000000     0.022390000000     0.391120000000    -0.186375   
N55      N      0.476120000000     0.018510000000     0.140600000000    -0.177911   
N56      N      0.472310000000     0.015180000000     0.073680000000    -0.185913   
N57      N      0.711890000000     0.121210000000     0.037970000000    -0.17791    
N58      N      0.625510000000     0.081300000000     0.012930000000    -0.184198   
N59      N      0.185920000000     0.873150000000     0.242340000000    -0.178714   
N60      N      0.187710000000     0.872850000000     0.309310000000    -0.186137   
N61      N      0.137890000000     0.821100000000     0.992590000000    -0.179107   
N62      N      0.134690000000     0.818810000000     0.059490000000    -0.186035   
N63      N      0.291350000000     0.913520000000     0.427530000000    -0.17798    
N64      N      0.378540000000     0.956120000000     0.451000000000    -0.184633   
N65      N      0.803640000000     0.680860000000     0.480730000000    -0.178393   
N66      N      0.803400000000     0.683200000000     0.413730000000    -0.186026   
N67      N      0.848770000000     0.673180000000     0.231680000000    -0.180325   
N68      N      0.846270000000     0.667580000000     0.164870000000    -0.184253   
N69      N      0.631990000000     0.587570000000     0.252960000000    -0.17703    
N70      N      0.714000000000     0.629450000000     0.283030000000    -0.189171   
N71      N      0.041190000000     0.780390000000     0.375110000000    -0.178482   
N72      N      0.953940000000     0.735020000000     0.351820000000    -0.184657   
N73      N      0.769450000000     0.054020000000     0.845150000000    -0.17799    
N74      N      0.728950000000     0.967950000000     0.869960000000    -0.185173   
N75      N      0.939260000000     0.388180000000     0.764370000000    -0.178074   
N76      N      0.899350000000     0.302960000000     0.790740000000    -0.184764   
N77      N      0.094390000000     0.721250000000     0.680900000000    -0.178105   
N78      N      0.050010000000     0.635540000000     0.706760000000    -0.184253   
N79      N      0.566480000000     0.632530000000     0.949420000000    -0.178342   
N80      N      0.612480000000     0.720100000000     0.927250000000    -0.184178   
N81      N      0.222610000000     0.967190000000     0.619750000000    -0.177846   
N82      N      0.262870000000     0.052190000000     0.592350000000    -0.183607   
N83      N      0.430140000000     0.385320000000     0.506900000000    -0.17772    
N84      N      0.384260000000     0.300700000000     0.534530000000    -0.184212   
N85      N      0.673770000000     0.825870000000     0.742900000000    -0.177989   
N86      N      0.671380000000     0.819190000000     0.809580000000    -0.186917   
N87      N      0.666700000000     0.873840000000     0.559530000000    -0.178437   
N88      N      0.667430000000     0.870530000000     0.492520000000    -0.185541   
N89      N      0.722920000000     0.781210000000     0.623730000000    -0.178896   
N90      N      0.761430000000     0.733220000000     0.599950000000    -0.185029   
N91      N      0.571140000000     0.963230000000     0.704870000000    -0.178406   
N92      N      0.615790000000     0.921600000000     0.680050000000    -0.184586   
N93      N      0.991630000000     0.536270000000     0.826980000000    -0.178012   
N94      N      0.986980000000     0.532960000000     0.893900000000    -0.186062   
N95      N      0.997330000000     0.483770000000     0.576660000000    -0.178312   
N96      N      0.997420000000     0.486430000000     0.643720000000    -0.185304   
N97      N      0.888650000000     0.611950000000     0.543830000000    -0.178333   
N98      N      0.929950000000     0.567670000000     0.517720000000    -0.184903   
N99      N      0.330730000000     0.153090000000     0.904830000000    -0.178517   
N100     N      0.329240000000     0.152710000000     0.971870000000    -0.185789   
N101     N      0.320530000000     0.201020000000     0.721850000000    -0.178513   
N102     N      0.320300000000     0.201840000000     0.654830000000    -0.18559    
N103     N      0.432480000000     0.072640000000     0.759800000000    -0.178675   
N104     N      0.385540000000     0.111950000000     0.784440000000    -0.184696   
N105     N      0.050970000000     0.442840000000     0.955470000000    -0.178268   
N106     N      0.092600000000     0.397740000000     0.931240000000    -0.184392   
N107     N      0.266230000000     0.240240000000     0.842440000000    -0.178623   
N108     N      0.221380000000     0.280600000000     0.868870000000    -0.185559   
N109     N      0.479010000000     0.489690000000     0.817640000000    -0.178382   
N110     N      0.474250000000     0.485450000000     0.884670000000    -0.185356   
N111     N      0.526780000000     0.537870000000     0.567890000000    -0.178444   
N112     N      0.533290000000     0.541150000000     0.634540000000    -0.186785   
N113     N      0.861810000000     0.204640000000     0.909690000000    -0.17846    
N114     N      0.865420000000     0.204780000000     0.976560000000    -0.185898   
N115     N      0.805880000000     0.156540000000     0.659320000000    -0.178025   
N116     N      0.806690000000     0.156050000000     0.726360000000    -0.18577    
N117     N      0.138270000000     0.344860000000     0.810190000000    -0.178415   
N118     N      0.144800000000     0.343100000000     0.743420000000    -0.185609   
N119     N      0.184570000000     0.332360000000     0.493020000000    -0.178474   
N120     N      0.189970000000     0.331870000000     0.559880000000    -0.185795   
N121     N      0.958350000000     0.238660000000     0.598910000000    -0.178079   
N122     N      0.043860000000     0.277370000000     0.625310000000    -0.184169   
N123     N      0.383030000000     0.444860000000     0.699350000000    -0.17788    
N124     N      0.295330000000     0.397180000000     0.676950000000    -0.184169   
N125     N      0.528050000000     0.018640000000     0.824200000000    -0.177785   
N126     N      0.531230000000     0.022390000000     0.891120000000    -0.186409   
N127     N      0.476120000000     0.018510000000     0.640600000000    -0.177903   
N128     N      0.472310000000     0.015180000000     0.573680000000    -0.185923   
N129     N      0.711890000000     0.121210000000     0.537970000000    -0.177933   
N130     N      0.625510000000     0.081300000000     0.512930000000    -0.18419    
N131     N      0.185920000000     0.873150000000     0.742340000000    -0.178707   
N132     N      0.187710000000     0.872850000000     0.809310000000    -0.18612    
N133     N      0.137890000000     0.821090000000     0.492590000000    -0.178955   
N134     N      0.134690000000     0.818810000000     0.559490000000    -0.18607    
N135     N      0.291350000000     0.913520000000     0.927530000000    -0.178005   
N136     N      0.378540000000     0.956120000000     0.951000000000    -0.184649   
N137     N      0.803640000000     0.680860000000     0.980730000000    -0.17845    
N138     N      0.803410000000     0.683190000000     0.913730000000    -0.186069   
N139     N      0.848770000000     0.673180000000     0.731680000000    -0.180326   
N140     N      0.846270000000     0.667580000000     0.664870000000    -0.18422    
N141     N      0.631990000000     0.587570000000     0.752960000000    -0.176975   
N142     N      0.714000000000     0.629450000000     0.783030000000    -0.189183   
N143     N      0.041190000000     0.780380000000     0.875110000000    -0.178547   
N144     N      0.953940000000     0.735020000000     0.851820000000    -0.184649   
Ni1      Ni     0.825020000000     0.644450000000     0.326070000000     1.01241    
Ni2      Ni     0.834930000000     0.716520000000     0.318910000000     1.01149    
Ni3      Ni     0.169250000000     0.815440000000     0.398220000000     1.00099    
Ni4      Ni     0.163180000000     0.879950000000     0.404400000000     1.01267    
Ni5      Ni     0.500580000000     0.984470000000     0.985120000000     1.00889    
Ni6      Ni     0.502870000000     0.053280000000     0.979660000000     0.999943   
Ni7      Ni     0.166370000000     0.302420000000     0.156020000000     0.998196   
Ni8      Ni     0.172080000000     0.372360000000     0.147870000000     1.01068    
Ni9      Ni     0.835910000000     0.146520000000     0.065570000000     1.0037     
Ni10     Ni     0.835030000000     0.214010000000     0.070220000000     1.0063     
Ni11     Ni     0.512480000000     0.484660000000     0.223620000000     0.996458   
Ni12     Ni     0.502830000000     0.547230000000     0.228700000000     1.01195    
Ni13     Ni     0.191550000000     0.374690000000     0.400250000000     0.998279   
Ni14     Ni     0.125960000000     0.304640000000     0.404010000000     1.01272    
Ni15     Ni     0.361160000000     0.209450000000     0.315370000000     1.00101    
Ni16     Ni     0.291010000000     0.143850000000     0.311060000000     1.01469    
Ni17     Ni     0.026330000000     0.539850000000     0.987410000000     1.00141    
Ni18     Ni     0.956610000000     0.473880000000     0.982860000000     1.00734    
Ni19     Ni     0.705960000000     0.883480000000     0.153550000000     0.997151   
Ni20     Ni     0.634030000000     0.820180000000     0.149530000000     1.02048    
Ni21     Ni     0.858550000000     0.707120000000     0.070600000000     1.01473    
Ni22     Ni     0.792020000000     0.637900000000     0.074060000000     1.00004    
Ni23     Ni     0.534010000000     0.054200000000     0.229570000000     1.00071    
Ni24     Ni     0.470500000000     0.982640000000     0.235150000000     1.011      
Ni25     Ni     0.289230000000     0.173920000000     0.059300000000     1.00764    
Ni26     Ni     0.359120000000     0.179120000000     0.067420000000     0.997645   
Ni27     Ni     0.466460000000     0.512130000000     0.979710000000     1.01042    
Ni28     Ni     0.530290000000     0.504560000000     0.973970000000     0.998777   
Ni29     Ni     0.127020000000     0.847010000000     0.153860000000     1.01986    
Ni30     Ni     0.192410000000     0.842090000000     0.148360000000     0.991039   
Ni31     Ni     0.958450000000     0.507230000000     0.231940000000     0.998039   
Ni32     Ni     0.030060000000     0.515710000000     0.238780000000     1.01137    
Ni33     Ni     0.801340000000     0.181260000000     0.321850000000     1.00262    
Ni34     Ni     0.866080000000     0.175680000000     0.314570000000     1.00848    
Ni35     Ni     0.635030000000     0.842060000000     0.397500000000     1.00721    
Ni36     Ni     0.705680000000     0.848410000000     0.404350000000     1.00682    
Ni37     Ni     0.825020000000     0.644450000000     0.826070000000     1.01241    
Ni38     Ni     0.834930000000     0.716520000000     0.818910000000     1.01155    
Ni39     Ni     0.169240000000     0.815430000000     0.898220000000     1.00119    
Ni40     Ni     0.163180000000     0.879950000000     0.904400000000     1.01251    
Ni41     Ni     0.500580000000     0.984470000000     0.485120000000     1.00909    
Ni42     Ni     0.502870000000     0.053280000000     0.479660000000     0.999941   
Ni43     Ni     0.166370000000     0.302420000000     0.656020000000     0.998153   
Ni44     Ni     0.172080000000     0.372360000000     0.647870000000     1.01088    
Ni45     Ni     0.835910000000     0.146520000000     0.565570000000     1.00352    
Ni46     Ni     0.835040000000     0.214010000000     0.570220000000     1.0063     
Ni47     Ni     0.512480000000     0.484660000000     0.723620000000     0.996324   
Ni48     Ni     0.502830000000     0.547220000000     0.728700000000     1.01203    
Ni49     Ni     0.191550000000     0.374690000000     0.900250000000     0.998217   
Ni50     Ni     0.125960000000     0.304640000000     0.904010000000     1.01285    
Ni51     Ni     0.361160000000     0.209450000000     0.815380000000     1.00109    
Ni52     Ni     0.291010000000     0.143850000000     0.811060000000     1.01449    
Ni53     Ni     0.026330000000     0.539850000000     0.487400000000     1.00173    
Ni54     Ni     0.956610000000     0.473880000000     0.482860000000     1.00717    
Ni55     Ni     0.705950000000     0.883480000000     0.653550000000     0.997097   
Ni56     Ni     0.634030000000     0.820180000000     0.649530000000     1.0204     
Ni57     Ni     0.858560000000     0.707130000000     0.570600000000     1.01469    
Ni58     Ni     0.792020000000     0.637900000000     0.574060000000     0.999945   
Ni59     Ni     0.534010000000     0.054200000000     0.729570000000     1.00075    
Ni60     Ni     0.470500000000     0.982640000000     0.735150000000     1.01098    
Ni61     Ni     0.289230000000     0.173920000000     0.559300000000     1.00764    
Ni62     Ni     0.359120000000     0.179120000000     0.567420000000     0.997641   
Ni63     Ni     0.466470000000     0.512140000000     0.479710000000     1.01036    
Ni64     Ni     0.530290000000     0.504560000000     0.473960000000     0.99884    
Ni65     Ni     0.127030000000     0.847010000000     0.653860000000     1.01985    
Ni66     Ni     0.192410000000     0.842090000000     0.648360000000     0.991121   
Ni67     Ni     0.958450000000     0.507230000000     0.731940000000     0.997932   
Ni68     Ni     0.030050000000     0.515710000000     0.738780000000     1.0112     
Ni69     Ni     0.801350000000     0.181260000000     0.821850000000     1.00262    
Ni70     Ni     0.866080000000     0.175680000000     0.814570000000     1.00843    
Ni71     Ni     0.635030000000     0.842060000000     0.897500000000     1.00733    
Ni72     Ni     0.705680000000     0.848410000000     0.904350000000     1.00694    
O1       O      0.840510000000     0.645490000000     0.282160000000    -0.453373   
O2       O      0.808050000000     0.646840000000     0.369430000000    -0.451112   
O3       O      0.765810000000     0.621610000000     0.311350000000    -0.452708   
O4       O      0.886330000000     0.672980000000     0.339260000000    -0.444049   
O5       O      0.894710000000     0.739680000000     0.332360000000    -0.454828   
O6       O      0.774340000000     0.688850000000     0.305380000000    -0.449226   
O7       O      0.818260000000     0.714480000000     0.363090000000    -0.446639   
O8       O      0.851260000000     0.713550000000     0.275340000000    -0.446713   
O9       O      0.155050000000     0.803840000000     0.443160000000    -0.445027   
O10      O      0.183460000000     0.831900000000     0.353820000000    -0.445234   
O11      O      0.230220000000     0.850560000000     0.409390000000    -0.451598   
O12      O      0.107410000000     0.784000000000     0.387380000000    -0.446197   
O13      O      0.102330000000     0.844770000000     0.391930000000    -0.450058   
O14      O      0.224950000000     0.910870000000     0.416540000000    -0.443606   
O15      O      0.178640000000     0.892540000000     0.360200000000    -0.451294   
O16      O      0.146870000000     0.862850000000     0.447950000000    -0.453439   
O17      O      0.517910000000     0.989710000000     0.440900000000    -0.449075   
O18      O      0.482430000000     0.983100000000     0.028790000000    -0.444163   
O19      O      0.440280000000     0.956550000000     0.471500000000    -0.449159   
O20      O      0.561590000000     0.017270000000     0.998390000000    -0.446125   
O21      O      0.563350000000     0.081240000000     0.993230000000    -0.447674   
O22      O      0.441720000000     0.020420000000     0.466340000000    -0.443794   
O23      O      0.485590000000     0.048020000000     0.023930000000    -0.446443   
O24      O      0.520980000000     0.054570000000     0.435950000000    -0.446443   
O25      O      0.152150000000     0.306280000000     0.200150000000    -0.444485   
O26      O      0.179800000000     0.302810000000     0.111160000000    -0.443706   
O27      O      0.228450000000     0.333490000000     0.166560000000    -0.444272   
O28      O      0.105280000000     0.276080000000     0.144850000000    -0.44886    
O29      O      0.110090000000     0.340970000000     0.136720000000    -0.444533   
O30      O      0.233270000000     0.398650000000     0.159480000000    -0.450036   
O31      O      0.186690000000     0.369020000000     0.104090000000    -0.449862   
O32      O      0.157700000000     0.371780000000     0.192240000000    -0.447955   
O33      O      0.854400000000     0.162620000000     0.021750000000    -0.442753   
O34      O      0.818450000000     0.135380000000     0.109880000000    -0.446057   
O35      O      0.774940000000     0.119260000000     0.052210000000    -0.44454    
O36      O      0.896190000000     0.177880000000     0.079320000000    -0.450485   
O37      O      0.896130000000     0.241360000000     0.083390000000    -0.444492   
O38      O      0.774500000000     0.182480000000     0.056760000000    -0.449973   
O39      O      0.816870000000     0.198130000000     0.113980000000    -0.447395   
O40      O      0.852370000000     0.225060000000     0.026020000000    -0.449227   
O41      O      0.527070000000     0.500480000000     0.179460000000    -0.44463    
O42      O      0.497980000000     0.473440000000     0.268520000000    -0.444982   
O43      O      0.450450000000     0.451000000000     0.212380000000    -0.441485   
O44      O      0.573590000000     0.522390000000     0.234660000000    -0.445228   
O45      O      0.563980000000     0.580250000000     0.241480000000    -0.447593   
O46      O      0.442680000000     0.510320000000     0.215870000000    -0.45162    
O47      O      0.486230000000     0.530310000000     0.272450000000    -0.450237   
O48      O      0.519010000000     0.559520000000     0.184320000000    -0.450144   
O49      O      0.175910000000     0.377250000000     0.356570000000    -0.44862    
O50      O      0.202980000000     0.368030000000     0.444290000000    -0.448814   
O51      O      0.221440000000     0.343610000000     0.386270000000    -0.443806   
O52      O      0.157050000000     0.400590000000     0.414100000000    -0.447198   
O53      O      0.095770000000     0.335300000000     0.416970000000    -0.448872   
O54      O      0.159900000000     0.278730000000     0.390700000000    -0.455696   
O55      O      0.141670000000     0.302340000000     0.447940000000    -0.446525   
O56      O      0.115420000000     0.310840000000     0.359480000000    -0.447349   
O57      O      0.362770000000     0.193570000000     0.359250000000    -0.447272   
O58      O      0.355390000000     0.220600000000     0.270970000000    -0.446877   
O59      O      0.329990000000     0.239450000000     0.328470000000    -0.444945   
O60      O      0.387350000000     0.175260000000     0.302200000000    -0.450729   
O61      O      0.322160000000     0.113890000000     0.298440000000    -0.446672   
O62      O      0.264750000000     0.177810000000     0.323840000000    -0.454967   
O63      O      0.289410000000     0.159580000000     0.267160000000    -0.447862   
O64      O      0.296530000000     0.132890000000     0.355510000000    -0.44878    
O65      O      0.020150000000     0.551850000000     0.443470000000    -0.449892   
O66      O      0.028690000000     0.523520000000     0.030870000000    -0.449165   
O67      O      0.053400000000     0.506510000000     0.473300000000    -0.446278   
O68      O      0.994050000000     0.568550000000     0.001470000000    -0.442996   
O69      O      0.929540000000     0.506810000000     0.996130000000    -0.453708   
O70      O      0.988170000000     0.444620000000     0.469940000000    -0.449613   
O71      O      0.962440000000     0.462820000000     0.027430000000    -0.444602   
O72      O      0.955070000000     0.490100000000     0.438850000000    -0.444774   
O73      O      0.701270000000     0.894190000000     0.108810000000    -0.445243   
O74      O      0.706350000000     0.867870000000     0.197790000000    -0.445497   
O75      O      0.729290000000     0.846470000000     0.141260000000    -0.45021    
O76      O      0.677530000000     0.916530000000     0.165670000000    -0.443653   
O77      O      0.610860000000     0.856960000000     0.162380000000    -0.454954   
O78      O      0.662080000000     0.787300000000     0.136960000000    -0.450285   
O79      O      0.639130000000     0.808640000000     0.193760000000    -0.451593   
O80      O      0.633260000000     0.835950000000     0.105620000000    -0.450673   
O81      O      0.868480000000     0.699870000000     0.114810000000    -0.448438   
O82      O      0.843860000000     0.710320000000     0.026780000000    -0.44998    
O83      O      0.824910000000     0.733890000000     0.083720000000    -0.452428   
O84      O      0.888070000000     0.675640000000     0.057520000000    -0.447093   
O85      O      0.826010000000     0.610880000000     0.062350000000    -0.450599   
O86      O      0.762330000000     0.669620000000     0.085530000000    -0.447061   
O87      O      0.783020000000     0.644130000000     0.029210000000    -0.44605    
O88      O      0.805510000000     0.636270000000     0.118710000000    -0.445312   
O89      O      0.517280000000     0.053110000000     0.185500000000    -0.446213   
O90      O      0.546070000000     0.051030000000     0.274190000000    -0.446703   
O91      O      0.566650000000     0.025230000000     0.217650000000    -0.444164   
O92      O      0.497400000000     0.078140000000     0.241800000000    -0.44984    
O93      O      0.437880000000     0.011390000000     0.246910000000    -0.448685   
O94      O      0.506930000000     0.958700000000     0.223090000000    -0.453401   
O95      O      0.487140000000     0.983820000000     0.279250000000    -0.447714   
O96      O      0.458500000000     0.985790000000     0.190510000000    -0.447594   
O97      O      0.292100000000     0.158180000000     0.015540000000    -0.447113   
O98      O      0.290590000000     0.189310000000     0.103700000000    -0.446334   
O99      O      0.320670000000     0.235220000000     0.047390000000    -0.446453   
O100     O      0.262440000000     0.113400000000     0.071720000000    -0.449671   
O101     O      0.327180000000     0.117450000000     0.079690000000    -0.440705   
O102     O      0.385940000000     0.239920000000     0.054600000000    -0.446605   
O103     O      0.356520000000     0.195310000000     0.111020000000    -0.446843   
O104     O      0.357760000000     0.163560000000     0.023160000000    -0.445506   
O105     O      0.483770000000     0.528640000000     0.023520000000    -0.448571   
O106     O      0.454120000000     0.496280000000     0.435280000000    -0.447741   
O107     O      0.434570000000     0.451060000000     0.992250000000    -0.447291   
O108     O      0.502130000000     0.572380000000     0.467000000000    -0.451151   
O109     O      0.562200000000     0.565970000000     0.461650000000    -0.443951   
O110     O      0.494260000000     0.444030000000     0.986890000000    -0.446525   
O111     O      0.513370000000     0.488640000000     0.429990000000    -0.447112   
O112     O      0.542980000000     0.520700000000     0.018280000000    -0.448684   
O113     O      0.144450000000     0.864920000000     0.197400000000    -0.450741   
O114     O      0.114450000000     0.829640000000     0.109860000000    -0.450537   
O115     O      0.096950000000     0.786340000000     0.167170000000    -0.449514   
O116     O      0.160760000000     0.906870000000     0.140030000000    -0.454063   
O117     O      0.222670000000     0.903620000000     0.135550000000    -0.43967    
O118     O      0.157820000000     0.781420000000     0.161460000000    -0.445267   
O119     O      0.175630000000     0.825350000000     0.104460000000    -0.446757   
O120     O      0.204580000000     0.858420000000     0.192740000000    -0.446706   
O121     O      0.960240000000     0.522160000000     0.276560000000    -0.444727   
O122     O      0.960940000000     0.491880000000     0.187950000000    -0.445389   
O123     O      0.934140000000     0.446780000000     0.244310000000    -0.448778   
O124     O      0.987780000000     0.568750000000     0.220030000000    -0.443178   
O125     O      0.054310000000     0.575930000000     0.225890000000    -0.451468   
O126     O      0.000980000000     0.454570000000     0.251250000000    -0.446154   
O127     O      0.027830000000     0.499840000000     0.194520000000    -0.446853   
O128     O      0.028000000000     0.531800000000     0.282490000000    -0.448153   
O129     O      0.788010000000     0.166060000000     0.277470000000    -0.447792   
O130     O      0.819330000000     0.197260000000     0.365540000000    -0.448488   
O131     O      0.836010000000     0.241980000000     0.309380000000    -0.448932   
O132     O      0.770890000000     0.119600000000     0.333880000000    -0.442587   
O133     O      0.831600000000     0.115020000000     0.326040000000    -0.453749   
O134     O      0.896740000000     0.237210000000     0.303480000000    -0.446484   
O135     O      0.878830000000     0.189980000000     0.359350000000    -0.446844   
O136     O      0.848580000000     0.161010000000     0.270430000000    -0.445469   
O137     O      0.637640000000     0.858270000000     0.441620000000    -0.449654   
O138     O      0.636330000000     0.825380000000     0.354000000000    -0.447655   
O139     O      0.609570000000     0.781530000000     0.410400000000    -0.448487   
O140     O      0.665660000000     0.903390000000     0.384710000000    -0.443629   
O141     O      0.731200000000     0.908770000000     0.392170000000    -0.452483   
O142     O      0.675400000000     0.786960000000     0.415810000000    -0.445537   
O143     O      0.703540000000     0.833580000000     0.359670000000    -0.447039   
O144     O      0.703400000000     0.863680000000     0.448440000000    -0.445125   
O145     O      0.840510000000     0.645490000000     0.782160000000    -0.453373   
O146     O      0.808050000000     0.646840000000     0.869430000000    -0.451127   
O147     O      0.765810000000     0.621610000000     0.811350000000    -0.452713   
O148     O      0.886330000000     0.672980000000     0.839260000000    -0.444044   
O149     O      0.894710000000     0.739680000000     0.832360000000    -0.454827   
O150     O      0.774340000000     0.688850000000     0.805380000000    -0.449245   
O151     O      0.818270000000     0.714480000000     0.863090000000    -0.446731   
O152     O      0.851260000000     0.713550000000     0.775340000000    -0.446725   
O153     O      0.155050000000     0.803840000000     0.943160000000    -0.445068   
O154     O      0.183450000000     0.831890000000     0.853820000000    -0.445178   
O155     O      0.230220000000     0.850560000000     0.909380000000    -0.451583   
O156     O      0.107410000000     0.784010000000     0.887380000000    -0.446433   
O157     O      0.102330000000     0.844770000000     0.891940000000    -0.450109   
O158     O      0.224960000000     0.910870000000     0.916540000000    -0.443611   
O159     O      0.178640000000     0.892540000000     0.860200000000    -0.451248   
O160     O      0.146880000000     0.862850000000     0.947960000000    -0.453389   
O161     O      0.517910000000     0.989710000000     0.940890000000    -0.449054   
O162     O      0.482430000000     0.983100000000     0.528790000000    -0.444152   
O163     O      0.440280000000     0.956550000000     0.971500000000    -0.449034   
O164     O      0.561590000000     0.017270000000     0.498390000000    -0.446097   
O165     O      0.563350000000     0.081240000000     0.493230000000    -0.447626   
O166     O      0.441720000000     0.020420000000     0.966340000000    -0.44377    
O167     O      0.485590000000     0.048020000000     0.523930000000    -0.446482   
O168     O      0.520980000000     0.054570000000     0.935950000000    -0.446414   
O169     O      0.152150000000     0.306280000000     0.700150000000    -0.444437   
O170     O      0.179800000000     0.302810000000     0.611160000000    -0.44371    
O171     O      0.228450000000     0.333490000000     0.666560000000    -0.444273   
O172     O      0.105280000000     0.276080000000     0.644850000000    -0.448855   
O173     O      0.110090000000     0.340970000000     0.636720000000    -0.444552   
O174     O      0.233270000000     0.398650000000     0.659480000000    -0.450092   
O175     O      0.186690000000     0.369020000000     0.604090000000    -0.449899   
O176     O      0.157700000000     0.371780000000     0.692230000000    -0.447989   
O177     O      0.854400000000     0.162620000000     0.521750000000    -0.442774   
O178     O      0.818450000000     0.135380000000     0.609880000000    -0.44603    
O179     O      0.774930000000     0.119260000000     0.552210000000    -0.444549   
O180     O      0.896190000000     0.177880000000     0.579320000000    -0.450472   
O181     O      0.896130000000     0.241360000000     0.583390000000    -0.444563   
O182     O      0.774500000000     0.182480000000     0.556760000000    -0.449924   
O183     O      0.816870000000     0.198130000000     0.613980000000    -0.447361   
O184     O      0.852370000000     0.225060000000     0.526020000000    -0.449268   
O185     O      0.527070000000     0.500480000000     0.679460000000    -0.444611   
O186     O      0.497990000000     0.473440000000     0.768520000000    -0.444857   
O187     O      0.450450000000     0.451010000000     0.712380000000    -0.441611   
O188     O      0.573590000000     0.522390000000     0.734660000000    -0.445155   
O189     O      0.563980000000     0.580260000000     0.741480000000    -0.447435   
O190     O      0.442680000000     0.510320000000     0.715870000000    -0.451662   
O191     O      0.486230000000     0.530310000000     0.772440000000    -0.450251   
O192     O      0.519010000000     0.559520000000     0.684320000000    -0.450124   
O193     O      0.175910000000     0.377250000000     0.856570000000    -0.448585   
O194     O      0.202980000000     0.368020000000     0.944290000000    -0.448799   
O195     O      0.221440000000     0.343610000000     0.886270000000    -0.443793   
O196     O      0.157050000000     0.400590000000     0.914100000000    -0.447155   
O197     O      0.095770000000     0.335290000000     0.916970000000    -0.448843   
O198     O      0.159900000000     0.278730000000     0.890700000000    -0.455714   
O199     O      0.141670000000     0.302340000000     0.947940000000    -0.446508   
O200     O      0.115420000000     0.310840000000     0.859480000000    -0.447336   
O201     O      0.362770000000     0.193570000000     0.859250000000    -0.447335   
O202     O      0.355390000000     0.220600000000     0.770980000000    -0.446883   
O203     O      0.329990000000     0.239450000000     0.828470000000    -0.44502    
O204     O      0.387360000000     0.175260000000     0.802200000000    -0.450607   
O205     O      0.322160000000     0.113890000000     0.798430000000    -0.446608   
O206     O      0.264750000000     0.177820000000     0.823840000000    -0.454976   
O207     O      0.289410000000     0.159580000000     0.767160000000    -0.447849   
O208     O      0.296530000000     0.132890000000     0.855510000000    -0.448705   
O209     O      0.020150000000     0.551850000000     0.943470000000    -0.449708   
O210     O      0.028690000000     0.523530000000     0.530860000000    -0.449031   
O211     O      0.053400000000     0.506510000000     0.973300000000    -0.446234   
O212     O      0.994050000000     0.568550000000     0.501470000000    -0.443038   
O213     O      0.929540000000     0.506820000000     0.496130000000    -0.453685   
O214     O      0.988170000000     0.444620000000     0.969940000000    -0.449655   
O215     O      0.962440000000     0.462820000000     0.527430000000    -0.444454   
O216     O      0.955070000000     0.490100000000     0.938850000000    -0.444746   
O217     O      0.701270000000     0.894190000000     0.608810000000    -0.445243   
O218     O      0.706350000000     0.867870000000     0.697790000000    -0.445431   
O219     O      0.729290000000     0.846470000000     0.641260000000    -0.450112   
O220     O      0.677530000000     0.916530000000     0.665670000000    -0.443711   
O221     O      0.610860000000     0.856960000000     0.662380000000    -0.454953   
O222     O      0.662080000000     0.787300000000     0.636960000000    -0.450261   
O223     O      0.639130000000     0.808640000000     0.693760000000    -0.451549   
O224     O      0.633260000000     0.835950000000     0.605620000000    -0.450665   
O225     O      0.868490000000     0.699870000000     0.614810000000    -0.448375   
O226     O      0.843860000000     0.710330000000     0.526780000000    -0.449894   
O227     O      0.824910000000     0.733890000000     0.583720000000    -0.452446   
O228     O      0.888070000000     0.675640000000     0.557520000000    -0.44713    
O229     O      0.826010000000     0.610880000000     0.562350000000    -0.450685   
O230     O      0.762330000000     0.669620000000     0.585530000000    -0.447061   
O231     O      0.783020000000     0.644130000000     0.529210000000    -0.446003   
O232     O      0.805510000000     0.636260000000     0.618720000000    -0.445157   
O233     O      0.517280000000     0.053110000000     0.685500000000    -0.446269   
O234     O      0.546070000000     0.051030000000     0.774190000000    -0.4468     
O235     O      0.566650000000     0.025230000000     0.717650000000    -0.444275   
O236     O      0.497400000000     0.078140000000     0.741800000000    -0.44984    
O237     O      0.437880000000     0.011390000000     0.746910000000    -0.448676   
O238     O      0.506930000000     0.958700000000     0.723090000000    -0.453408   
O239     O      0.487140000000     0.983820000000     0.779250000000    -0.447781   
O240     O      0.458500000000     0.985790000000     0.690510000000    -0.447577   
O241     O      0.292100000000     0.158180000000     0.515540000000    -0.447115   
O242     O      0.290590000000     0.189310000000     0.603700000000    -0.446334   
O243     O      0.320670000000     0.235220000000     0.547390000000    -0.446455   
O244     O      0.262440000000     0.113400000000     0.571720000000    -0.449672   
O245     O      0.327180000000     0.117450000000     0.579690000000    -0.440705   
O246     O      0.385940000000     0.239920000000     0.554600000000    -0.446607   
O247     O      0.356520000000     0.195310000000     0.611020000000    -0.446842   
O248     O      0.357760000000     0.163560000000     0.523160000000    -0.445509   
O249     O      0.483770000000     0.528640000000     0.523520000000    -0.44859    
O250     O      0.454120000000     0.496270000000     0.935280000000    -0.447839   
O251     O      0.434570000000     0.451060000000     0.492250000000    -0.447186   
O252     O      0.502140000000     0.572380000000     0.967000000000    -0.451271   
O253     O      0.562200000000     0.565980000000     0.961650000000    -0.44392    
O254     O      0.494260000000     0.444030000000     0.486890000000    -0.446491   
O255     O      0.513370000000     0.488640000000     0.929990000000    -0.447029   
O256     O      0.542980000000     0.520700000000     0.518280000000    -0.448602   
O257     O      0.144450000000     0.864920000000     0.697400000000    -0.450729   
O258     O      0.114440000000     0.829640000000     0.609860000000    -0.450266   
O259     O      0.096950000000     0.786340000000     0.667170000000    -0.449606   
O260     O      0.160760000000     0.906860000000     0.640030000000    -0.45411    
O261     O      0.222670000000     0.903610000000     0.635550000000    -0.439645   
O262     O      0.157820000000     0.781430000000     0.661460000000    -0.445393   
O263     O      0.175630000000     0.825350000000     0.604460000000    -0.44664    
O264     O      0.204580000000     0.858420000000     0.692740000000    -0.44671    
O265     O      0.960240000000     0.522160000000     0.776560000000    -0.44487    
O266     O      0.960940000000     0.491880000000     0.687950000000    -0.445322   
O267     O      0.934140000000     0.446780000000     0.744310000000    -0.448755   
O268     O      0.987780000000     0.568750000000     0.720030000000    -0.443164   
O269     O      0.054310000000     0.575930000000     0.725890000000    -0.451438   
O270     O      0.000980000000     0.454570000000     0.751250000000    -0.446108   
O271     O      0.027840000000     0.499840000000     0.694520000000    -0.44665    
O272     O      0.028000000000     0.531800000000     0.782490000000    -0.4481     
O273     O      0.788010000000     0.166060000000     0.777470000000    -0.447594   
O274     O      0.819330000000     0.197260000000     0.865540000000    -0.448542   
O275     O      0.836010000000     0.241980000000     0.809380000000    -0.449001   
O276     O      0.770890000000     0.119600000000     0.833870000000    -0.442601   
O277     O      0.831600000000     0.115020000000     0.826040000000    -0.453743   
O278     O      0.896730000000     0.237210000000     0.803480000000    -0.446628   
O279     O      0.878820000000     0.189980000000     0.859350000000    -0.446989   
O280     O      0.848590000000     0.161010000000     0.770430000000    -0.445251   
O281     O      0.637640000000     0.858270000000     0.941620000000    -0.449633   
O282     O      0.636330000000     0.825390000000     0.854010000000    -0.4478     
O283     O      0.609570000000     0.781530000000     0.910410000000    -0.448454   
O284     O      0.665660000000     0.903390000000     0.884710000000    -0.443561   
O285     O      0.731200000000     0.908760000000     0.892170000000    -0.45244    
O286     O      0.675410000000     0.786960000000     0.915810000000    -0.445421   
O287     O      0.703530000000     0.833580000000     0.859670000000    -0.447137   
O288     O      0.703400000000     0.863680000000     0.948440000000    -0.445272   
S1       S      0.803840000000     0.961600000000     0.355110000000    -0.0318272  
S2       S      0.981760000000     0.309820000000     0.300420000000    -0.0218334  
S3       S      0.972200000000     0.639040000000     0.213520000000    -0.0237772  
S4       S      0.690270000000     0.716330000000     0.420740000000    -0.0201641  
S5       S      0.179940000000     0.046510000000     0.086720000000    -0.0299804  
S6       S      0.308340000000     0.307560000000     0.041910000000    -0.0218535  
S7       S      0.582840000000     0.754860000000     0.309630000000    -0.0314133  
S8       S      0.575300000000     0.819700000000     0.490560000000    -0.0294728  
S9       S      0.678410000000     0.656750000000     0.095370000000    -0.0252146  
S10      S      0.693540000000     0.002590000000     0.172760000000    -0.0218203  
S11      S      0.895870000000     0.496210000000     0.393380000000    -0.0365834  
S12      S      0.089100000000     0.541100000000     0.145110000000    -0.0288916  
S13      S      0.852630000000     0.486090000000     0.527070000000    -0.0300026  
S14      S      0.420740000000     0.207560000000     0.974750000000    -0.0305507  
S15      S      0.228180000000     0.152300000000     0.153110000000    -0.0333068  
S16      S      0.309150000000     0.029500000000     0.291180000000    -0.0202201  
S17      S      0.011010000000     0.319420000000     0.426720000000    -0.0237017  
S18      S      0.139630000000     0.205510000000     0.355110000000    -0.0306109  
S19      S      0.431360000000     0.534780000000     0.385980000000    -0.0294752  
S20      S      0.596020000000     0.514770000000     0.134300000000    -0.0322659  
S21      S      0.921100000000     0.169720000000     0.476770000000    -0.0314122  
S22      S      0.772800000000     0.213150000000     0.229120000000    -0.0306933  
S23      S      0.199530000000     0.434430000000     0.241030000000    -0.029463   
S24      S      0.136320000000     0.240480000000     0.062050000000    -0.0340364  
S25      S      0.035870000000     0.193840000000     0.132210000000    -0.0280868  
S26      S      0.300760000000     0.320450000000     0.171370000000    -0.0216533  
S27      S      0.588160000000     0.112810000000     0.391050000000    -0.0359499  
S28      S      0.415160000000     0.924830000000     0.073550000000    -0.0293875  
S29      S      0.625950000000     0.161510000000     0.516950000000    -0.0300455  
S30      S      0.133650000000     0.910480000000     0.312500000000    -0.0299182  
S31      S      0.092100000000     0.868440000000     0.060520000000    -0.0296972  
S32      S      0.386190000000     0.882000000000     0.436770000000    -0.0285529  
S33      S      0.859300000000     0.774450000000     0.413370000000    -0.03037    
S34      S      0.933090000000     0.738440000000     0.161040000000    -0.0269575  
S35      S      0.745200000000     0.583350000000     0.247290000000    -0.0636268  
S36      S      0.956080000000     0.656480000000     0.347510000000    -0.0216622  
S37      S      0.803840000000     0.961600000000     0.855110000000    -0.0318259  
S38      S      0.981760000000     0.309820000000     0.800420000000    -0.021847   
S39      S      0.972200000000     0.639050000000     0.713520000000    -0.0237875  
S40      S      0.690270000000     0.716330000000     0.920740000000    -0.0201678  
S41      S      0.179940000000     0.046510000000     0.586720000000    -0.0299856  
S42      S      0.308340000000     0.307560000000     0.541910000000    -0.0218603  
S43      S      0.582840000000     0.754860000000     0.809630000000    -0.0314148  
S44      S      0.575290000000     0.819690000000     0.990560000000    -0.0294905  
S45      S      0.678410000000     0.656750000000     0.595370000000    -0.0252237  
S46      S      0.693540000000     0.002590000000     0.672760000000    -0.0218115  
S47      S      0.895880000000     0.496210000000     0.893390000000    -0.0365849  
S48      S      0.089100000000     0.541110000000     0.645110000000    -0.0288907  
S49      S      0.852620000000     0.486090000000     0.027070000000    -0.0299859  
S50      S      0.420740000000     0.207560000000     0.474750000000    -0.0305317  
S51      S      0.228180000000     0.152300000000     0.653110000000    -0.0333056  
S52      S      0.309150000000     0.029500000000     0.791180000000    -0.0202088  
S53      S      0.011010000000     0.319420000000     0.926730000000    -0.0236923  
S54      S      0.139630000000     0.205510000000     0.855110000000    -0.0306116  
S55      S      0.431360000000     0.534780000000     0.885980000000    -0.0295032  
S56      S      0.596020000000     0.514770000000     0.634300000000    -0.0322873  
S57      S      0.921100000000     0.169720000000     0.976770000000    -0.0314135  
S58      S      0.772800000000     0.213150000000     0.729120000000    -0.0306834  
S59      S      0.199530000000     0.434430000000     0.741030000000    -0.0294793  
S60      S      0.136320000000     0.240480000000     0.562050000000    -0.0340367  
S61      S      0.035870000000     0.193830000000     0.632210000000    -0.0280918  
S62      S      0.300760000000     0.320450000000     0.671370000000    -0.021648   
S63      S      0.588160000000     0.112810000000     0.891050000000    -0.0359644  
S64      S      0.415160000000     0.924830000000     0.573550000000    -0.0294025  
S65      S      0.625950000000     0.161510000000     0.016950000000    -0.0300018  
S66      S      0.133660000000     0.910480000000     0.812500000000    -0.0299107  
S67      S      0.092100000000     0.868440000000     0.560520000000    -0.0297096  
S68      S      0.386190000000     0.881990000000     0.936770000000    -0.0285651  
S69      S      0.859300000000     0.774450000000     0.913370000000    -0.0303701  
S70      S      0.933090000000     0.738440000000     0.661040000000    -0.026947   
S71      S      0.745200000000     0.583340000000     0.747290000000    -0.0636427  
S72      S      0.956080000000     0.656480000000     0.847510000000    -0.0216593  


