data_structure

_audit_creation_method RASPA-1.0
_audit_creation_date 2023-5-23
_audit_author_name 'Poobodin Mano'

_cell_length_a    31.8248
_cell_length_b    31.8279
_cell_length_c    42.584
_cell_angle_alpha 90
_cell_angle_beta  90
_cell_angle_gamma 90
_cell_volume      43134

_symmetry_cell_setting          triclinic
_symmetry_space_group_name_Hall 'P 1'
_symmetry_space_group_name_H-M  'P 1'
_symmetry_Int_Tables_number     1

_symmetry_equiv_pos_as_xyz 'x,y,z'

loop_
_atom_site_label
_atom_site_type_symbol
_atom_site_fract_x
_atom_site_fract_y
_atom_site_fract_z
_atom_site_charge
C1       C      0.508240000000     0.837770000000     0.067670000000     0.430893   
C2       C      0.505350000000     0.840480000000     0.447700000000     0.431975   
C3       C      0.426760000000     0.839470000000     0.008680000000     0.432954   
C4       C      0.586840000000     0.838870000000     0.006280000000     0.43294    
C5       C      0.508420000000     0.837500000000     0.197700000000     0.432055   
C6       C      0.505770000000     0.840650000000     0.317760000000     0.432563   
C7       C      0.587290000000     0.839420000000     0.258810000000     0.434918   
C8       C      0.427040000000     0.838820000000     0.256730000000     0.435093   
C9       C      0.841770000000     0.504000000000     0.061670000000     0.430688   
C10      C      0.839030000000     0.507510000000     0.441700000000     0.43153    
C11      C      0.840320000000     0.585760000000     0.003200000000     0.423062   
C12      C      0.840610000000     0.425680000000     0.000300000000     0.417051   
C13      C      0.841860000000     0.504860000000     0.191640000000     0.43249    
C14      C      0.838710000000     0.508160000000     0.311700000000     0.432107   
C15      C      0.839860000000     0.426490000000     0.253060000000     0.434675   
C16      C      0.840720000000     0.586740000000     0.250430000000     0.434673   
C17      C      0.508810000000     0.174070000000     0.068490000000     0.431044   
C18      C      0.505380000000     0.174040000000     0.448470000000     0.431554   
C19      C      0.587160000000     0.173500000000     0.007070000000     0.432571   
C20      C      0.427060000000     0.174810000000     0.009810000000     0.432943   
C21      C      0.508940000000     0.173800000000     0.198460000000     0.431768   
C22      C      0.505160000000     0.173770000000     0.318470000000     0.431514   
C23      C      0.427010000000     0.173850000000     0.256790000000     0.434083   
C24      C      0.587090000000     0.173470000000     0.259970000000     0.434319   
C25      C      0.175410000000     0.506550000000     0.064900000000     0.431917   
C26      C      0.172200000000     0.506740000000     0.444830000000     0.432313   
C27      C      0.173940000000     0.426500000000     0.005070000000     0.433976   
C28      C      0.173700000000     0.586700000000     0.004710000000     0.433719   
C29      C      0.172290000000     0.508050000000     0.314850000000     0.431833   
C30      C      0.175050000000     0.505550000000     0.194880000000     0.431974   
C31      C      0.173670000000     0.426750000000     0.256110000000     0.434009   
C32      C      0.173540000000     0.586820000000     0.253550000000     0.434001   
C33      C      0.759510000000     0.838560000000     0.003700000000     0.424737   
C34      C      0.919870000000     0.838620000000     0.003830000000     0.423057   
C35      C      0.839870000000     0.758440000000     0.504470000000     0.434023   
C36      C      0.839410000000     0.918770000000     0.503170000000     0.432203   
C37      C      0.759970000000     0.839420000000     0.257520000000     0.433765   
C38      C      0.920190000000     0.839660000000     0.253200000000     0.431942   
C39      C      0.840250000000     0.759420000000     0.252770000000     0.433311   
C40      C      0.839980000000     0.919630000000     0.258010000000     0.431774   
C41      C      0.759820000000     0.173300000000     0.502890000000     0.4334     
C42      C      0.920170000000     0.172530000000     0.500220000000     0.432114   
C43      C      0.840380000000     0.252980000000     0.000270000000     0.418362   
C44      C      0.839440000000     0.092660000000     0.002160000000     0.423076   
C45      C      0.839370000000     0.253910000000     0.257270000000     0.433587   
C46      C      0.840260000000     0.093590000000     0.260040000000     0.431841   
C47      C      0.759790000000     0.173370000000     0.260050000000     0.433987   
C48      C      0.920090000000     0.174280000000     0.257850000000     0.431975   
C49      C      0.174110000000     0.253950000000     0.505540000000     0.434796   
C50      C      0.174900000000     0.093520000000     0.505200000000     0.432929   
C51      C      0.254490000000     0.174510000000     0.007870000000     0.425449   
C52      C      0.094150000000     0.173370000000     0.002530000000     0.423803   
C53      C      0.174020000000     0.254050000000     0.256790000000     0.433917   
C54      C      0.174470000000     0.093720000000     0.254830000000     0.431984   
C55      C      0.254340000000     0.173940000000     0.255100000000     0.433937   
C56      C      0.094000000000     0.173990000000     0.256470000000     0.43229    
C57      C      0.254090000000     0.839310000000     0.506890000000     0.433622   
C58      C      0.093790000000     0.839370000000     0.504370000000     0.432523   
C59      C      0.173850000000     0.759310000000     0.004890000000     0.424916   
C60      C      0.174270000000     0.919620000000     0.005720000000     0.423144   
C61      C      0.173660000000     0.759490000000     0.251940000000     0.43359    
C62      C      0.174960000000     0.919810000000     0.253410000000     0.432006   
C63      C      0.254430000000     0.838950000000     0.254030000000     0.433815   
C64      C      0.094130000000     0.840110000000     0.251610000000     0.432189   
C65      C      0.175030000000     0.029120000000     0.226560000000     0.0314638  
C66      C      0.174750000000     0.028290000000     0.281940000000     0.0314536  
C67      C      0.175160000000     0.984420000000     0.281620000000     0.0314882  
C68      C      0.174970000000     0.985240000000     0.226240000000     0.0314715  
C69      C      0.175230000000     0.028650000000     0.033080000000     0.0303877  
C70      C      0.174690000000     0.028360000000     0.477700000000     0.0314741  
C71      C      0.174300000000     0.984500000000     0.477900000000     0.0315656  
C72      C      0.175200000000     0.984760000000     0.033280000000     0.0301765  
C73      C      0.985510000000     0.174270000000     0.284950000000     0.0314988  
C74      C      0.984700000000     0.174510000000     0.229570000000     0.0315465  
C75      C      0.028590000000     0.174170000000     0.229260000000     0.0313466  
C76      C      0.029370000000     0.174380000000     0.284650000000     0.0315489  
C77      C      0.984680000000     0.171000000000     0.028130000000     0.0302331  
C78      C      0.985800000000     0.174360000000     0.472820000000     0.0315059  
C79      C      0.029850000000     0.174500000000     0.473430000000     0.0314809  
C80      C      0.028380000000     0.171320000000     0.028750000000     0.0301377  
C81      C      0.984700000000     0.837640000000     0.224470000000     0.0314568  
C82      C      0.985730000000     0.842320000000     0.279730000000     0.0313324  
C83      C      0.029450000000     0.842510000000     0.279310000000     0.0314639  
C84      C      0.028720000000     0.837750000000     0.224050000000     0.0314611  
C85      C      0.837790000000     0.984000000000     0.286980000000     0.0314954  
C86      C      0.842530000000     0.985310000000     0.231730000000     0.0313372  
C87      C      0.842660000000     0.029020000000     0.232260000000     0.0313802  
C88      C      0.837880000000     0.028050000000     0.287520000000     0.0313674  
C89      C      0.985030000000     0.838770000000     0.476220000000     0.0313815  
C90      C      0.984750000000     0.838770000000     0.031610000000     0.0302999  
C91      C      0.028580000000     0.839230000000     0.031690000000     0.0303501  
C92      C      0.028950000000     0.838730000000     0.476300000000     0.0315006  
C93      C      0.839020000000     0.027350000000     0.474900000000     0.0315216  
C94      C      0.839310000000     0.027950000000     0.030290000000     0.0302061  
C95      C      0.839560000000     0.984070000000     0.030490000000     0.0302766  
C96      C      0.838780000000     0.983490000000     0.475110000000     0.0315798  
C97      C      0.145530000000     0.651580000000     0.270910000000     0.0333371  
C98      C      0.200880000000     0.650920000000     0.233910000000     0.0331545  
C99      C      0.199240000000     0.694760000000     0.232170000000     0.0328729  
C100     C      0.146880000000     0.695390000000     0.271530000000     0.0332786  
C101     C      0.200640000000     0.362510000000     0.275790000000     0.0332471  
C102     C      0.146290000000     0.362110000000     0.237970000000     0.0333038  
C103     C      0.147760000000     0.318320000000     0.237110000000     0.0333265  
C104     C      0.199070000000     0.318640000000     0.277230000000     0.0329581  
C105     C      0.145360000000     0.651090000000     0.022580000000     0.0325092  
C106     C      0.201770000000     0.651110000000     0.486480000000     0.0335452  
C107     C      0.200250000000     0.694950000000     0.485230000000     0.0328671  
C108     C      0.146840000000     0.694900000000     0.023800000000     0.0319646  
C109     C      0.201450000000     0.362060000000     0.486650000000     0.033553   
C110     C      0.146850000000     0.362200000000     0.024280000000     0.0326541  
C111     C      0.148550000000     0.318370000000     0.025690000000     0.0322305  
C112     C      0.199980000000     0.318250000000     0.485630000000     0.0336492  
C113     C      0.134720000000     0.505690000000     0.396250000000     0.0312886  
C114     C      0.208740000000     0.509360000000     0.396220000000     0.0310372  
C115     C      0.208800000000     0.509960000000     0.363510000000     0.0310634  
C116     C      0.134800000000     0.506000000000     0.363390000000     0.0312152  
C117     C      0.212810000000     0.504370000000     0.113510000000     0.0311451  
C118     C      0.138770000000     0.507720000000     0.113500000000     0.031017   
C119     C      0.138630000000     0.507460000000     0.146210000000     0.0311562  
C120     C      0.212650000000     0.503830000000     0.146380000000     0.0312296  
C121     C      0.362940000000     0.201120000000     0.237000000000     0.0332418  
C122     C      0.362230000000     0.146110000000     0.274280000000     0.0332665  
C123     C      0.318440000000     0.147460000000     0.274870000000     0.033262   
C124     C      0.319080000000     0.199450000000     0.235240000000     0.0328852  
C125     C      0.651530000000     0.145500000000     0.241940000000     0.0332796  
C126     C      0.651520000000     0.200680000000     0.279080000000     0.03331    
C127     C      0.695390000000     0.199040000000     0.280360000000     0.0328506  
C128     C      0.695320000000     0.146860000000     0.240880000000     0.033274   
C129     C      0.363010000000     0.201620000000     0.490200000000     0.0332815  
C130     C      0.362310000000     0.149130000000     0.029470000000     0.0324502  
C131     C      0.318400000000     0.150830000000     0.030210000000     0.0323053  
C132     C      0.319250000000     0.200000000000     0.488620000000     0.0337611  
C133     C      0.696290000000     0.199190000000     0.024330000000     0.0313797  
C134     C      0.694510000000     0.147470000000     0.484530000000     0.0331004  
C135     C      0.650740000000     0.145910000000     0.486840000000     0.0333029  
C136     C      0.652440000000     0.200660000000     0.024300000000     0.0322407  
C137     C      0.504980000000     0.210990000000     0.399830000000     0.0310494  
C138     C      0.504180000000     0.136890000000     0.399920000000     0.0312157  
C139     C      0.504410000000     0.136820000000     0.367120000000     0.0312399  
C140     C      0.504590000000     0.210910000000     0.367030000000     0.0312086  
C141     C      0.509590000000     0.211030000000     0.117120000000     0.0311259  
C142     C      0.509570000000     0.136930000000     0.117030000000     0.0310737  
C143     C      0.509330000000     0.136850000000     0.149820000000     0.0311067  
C144     C      0.509940000000     0.210950000000     0.149910000000     0.0310703  
C145     C      0.867720000000     0.362800000000     0.272760000000     0.0334308  
C146     C      0.811390000000     0.361400000000     0.236590000000     0.0333734  
C147     C      0.812740000000     0.317530000000     0.236460000000     0.0329053  
C148     C      0.866050000000     0.319060000000     0.275090000000     0.033284   
C149     C      0.812690000000     0.651550000000     0.232680000000     0.0333745  
C150     C      0.869470000000     0.650840000000     0.268440000000     0.0334081  
C151     C      0.867950000000     0.694590000000     0.270210000000     0.0332098  
C152     C      0.814110000000     0.695460000000     0.232000000000     0.0329206  
C153     C      0.868500000000     0.361200000000     0.018350000000     0.027345   
C154     C      0.813240000000     0.361290000000     0.481270000000     0.0333077  
C155     C      0.814780000000     0.317420000000     0.480010000000     0.0328909  
C156     C      0.867020000000     0.317400000000     0.019450000000     0.0275145  
C157     C      0.813430000000     0.649860000000     0.523180000000     0.0333511  
C158     C      0.867510000000     0.650510000000     0.985150000000     0.0387199  
C159     C      0.866000000000     0.694310000000     0.984440000000     0.0388955  
C160     C      0.814990000000     0.693710000000     0.524780000000     0.0328673  
C161     C      0.801470000000     0.510150000000     0.393200000000     0.0312637  
C162     C      0.875490000000     0.506610000000     0.393010000000     0.0310311  
C163     C      0.875350000000     0.506930000000     0.360300000000     0.0311511  
C164     C      0.801320000000     0.510180000000     0.360320000000     0.0312304  
C165     C      0.879350000000     0.505540000000     0.143070000000     0.0312965  
C166     C      0.805330000000     0.501980000000     0.143030000000     0.0310727  
C167     C      0.805260000000     0.501580000000     0.110310000000     0.0308665  
C168     C      0.879270000000     0.505460000000     0.110210000000     0.0310608  
C169     C      0.362120000000     0.810680000000     0.273910000000     0.0334643  
C170     C      0.363160000000     0.866860000000     0.237620000000     0.0336502  
C171     C      0.319390000000     0.865420000000     0.235730000000     0.0332004  
C172     C      0.318250000000     0.812260000000     0.274490000000     0.0329177  
C173     C      0.651960000000     0.811370000000     0.276790000000     0.0334682  
C174     C      0.651500000000     0.868310000000     0.241170000000     0.0333753  
C175     C      0.695270000000     0.866960000000     0.239710000000     0.0333182  
C176     C      0.695860000000     0.812930000000     0.277780000000     0.0328611  
C177     C      0.362650000000     0.867130000000     0.489720000000     0.0332821  
C178     C      0.362010000000     0.812270000000     0.027130000000     0.0322854  
C179     C      0.318130000000     0.813770000000     0.027850000000     0.0314183  
C180     C      0.318870000000     0.865560000000     0.488080000000     0.0333269  
C181     C      0.650690000000     0.811840000000     0.485970000000     0.0333111  
C182     C      0.651830000000     0.866140000000     0.023820000000     0.0323165  
C183     C      0.695630000000     0.864710000000     0.024160000000     0.0318781  
C184     C      0.694530000000     0.813450000000     0.484010000000     0.0328765  
C185     C      0.502840000000     0.804000000000     0.399060000000     0.0311165  
C186     C      0.506830000000     0.878000000000     0.399190000000     0.0313342  
C187     C      0.506780000000     0.878110000000     0.366330000000     0.031406   
C188     C      0.503120000000     0.804090000000     0.366350000000     0.0311611  
C189     C      0.507080000000     0.874240000000     0.116360000000     0.0310171  
C190     C      0.510540000000     0.800230000000     0.116200000000     0.0310634  
C191     C      0.510430000000     0.800100000000     0.149080000000     0.0311547  
C192     C      0.507240000000     0.874130000000     0.149080000000     0.0309245  
C193     C      0.508240000000     0.837770000000     0.567670000000     0.431551   
C194     C      0.505350000000     0.840480000000     0.947700000000     0.430984   
C195     C      0.426760000000     0.839470000000     0.508680000000     0.434099   
C196     C      0.586840000000     0.838870000000     0.506280000000     0.434107   
C197     C      0.508420000000     0.837500000000     0.697700000000     0.432051   
C198     C      0.505770000000     0.840650000000     0.817760000000     0.432626   
C199     C      0.587290000000     0.839420000000     0.758810000000     0.434928   
C200     C      0.427040000000     0.838820000000     0.756730000000     0.435101   
C201     C      0.841770000000     0.504000000000     0.561670000000     0.431803   
C202     C      0.839030000000     0.507510000000     0.941700000000     0.429768   
C203     C      0.840320000000     0.585760000000     0.503200000000     0.433898   
C204     C      0.840610000000     0.425680000000     0.500300000000     0.434107   
C205     C      0.841860000000     0.504860000000     0.691640000000     0.432491   
C206     C      0.838710000000     0.508160000000     0.811700000000     0.432165   
C207     C      0.839860000000     0.426490000000     0.753060000000     0.434679   
C208     C      0.840720000000     0.586740000000     0.750430000000     0.43468    
C209     C      0.508810000000     0.174070000000     0.568490000000     0.431587   
C210     C      0.505380000000     0.174040000000     0.948470000000     0.430361   
C211     C      0.587160000000     0.173500000000     0.507070000000     0.433738   
C212     C      0.427060000000     0.174810000000     0.509810000000     0.434102   
C213     C      0.508940000000     0.173800000000     0.698460000000     0.431765   
C214     C      0.505160000000     0.173770000000     0.818470000000     0.431575   
C215     C      0.427010000000     0.173850000000     0.756790000000     0.434086   
C216     C      0.587090000000     0.173470000000     0.759970000000     0.434327   
C217     C      0.175410000000     0.506550000000     0.564910000000     0.432377   
C218     C      0.172200000000     0.506740000000     0.944830000000     0.431326   
C219     C      0.173940000000     0.426500000000     0.505070000000     0.435175   
C220     C      0.173700000000     0.586700000000     0.504710000000     0.434856   
C221     C      0.172290000000     0.508050000000     0.814850000000     0.431887   
C222     C      0.175050000000     0.505550000000     0.694880000000     0.43203    
C223     C      0.173670000000     0.426750000000     0.756110000000     0.434012   
C224     C      0.173540000000     0.586820000000     0.753550000000     0.433999   
C225     C      0.759510000000     0.838560000000     0.503700000000     0.433843   
C226     C      0.919870000000     0.838620000000     0.503830000000     0.432181   
C227     C      0.839870000000     0.758440000000     0.004470000000     0.424863   
C228     C      0.839410000000     0.918770000000     0.003170000000     0.423197   
C229     C      0.759970000000     0.839430000000     0.757520000000     0.433758   
C230     C      0.920190000000     0.839660000000     0.753200000000     0.43192    
C231     C      0.840250000000     0.759420000000     0.752770000000     0.433397   
C232     C      0.839980000000     0.919630000000     0.758010000000     0.431754   
C233     C      0.759820000000     0.173300000000     0.002890000000     0.424169   
C234     C      0.920170000000     0.172530000000     0.000220000000     0.422779   
C235     C      0.840390000000     0.252980000000     0.500270000000     0.433763   
C236     C      0.839440000000     0.092660000000     0.502160000000     0.432241   
C237     C      0.839370000000     0.253910000000     0.757270000000     0.433602   
C238     C      0.840260000000     0.093590000000     0.760040000000     0.431797   
C239     C      0.759790000000     0.173370000000     0.760040000000     0.433978   
C240     C      0.920090000000     0.174280000000     0.757840000000     0.431953   
C241     C      0.174110000000     0.253950000000     0.005540000000     0.4254     
C242     C      0.174900000000     0.093520000000     0.005200000000     0.423966   
C243     C      0.254490000000     0.174510000000     0.507870000000     0.434572   
C244     C      0.094150000000     0.173370000000     0.502530000000     0.43253    
C245     C      0.174020000000     0.254050000000     0.756790000000     0.43391    
C246     C      0.174470000000     0.093720000000     0.754830000000     0.431961   
C247     C      0.254340000000     0.173940000000     0.755100000000     0.433928   
C248     C      0.094000000000     0.173990000000     0.756470000000     0.432269   
C249     C      0.254090000000     0.839310000000     0.006890000000     0.42469    
C250     C      0.093790000000     0.839370000000     0.004370000000     0.42349    
C251     C      0.173850000000     0.759310000000     0.504890000000     0.434047   
C252     C      0.174270000000     0.919620000000     0.505720000000     0.432261   
C253     C      0.173660000000     0.759490000000     0.751940000000     0.433846   
C254     C      0.174960000000     0.919810000000     0.753410000000     0.431988   
C255     C      0.254430000000     0.838950000000     0.754030000000     0.43381    
C256     C      0.094130000000     0.840110000000     0.751610000000     0.432171   
C257     C      0.175030000000     0.029120000000     0.726560000000     0.0314528  
C258     C      0.174750000000     0.028290000000     0.781940000000     0.0314614  
C259     C      0.175160000000     0.984420000000     0.781620000000     0.0314975  
C260     C      0.174970000000     0.985240000000     0.726240000000     0.0314599  
C261     C      0.175230000000     0.028650000000     0.533080000000     0.0315456  
C262     C      0.174690000000     0.028360000000     0.977700000000     0.0369386  
C263     C      0.174300000000     0.984500000000     0.977900000000     0.0369621  
C264     C      0.175200000000     0.984760000000     0.533280000000     0.0314082  
C265     C      0.985510000000     0.174270000000     0.784950000000     0.0315621  
C266     C      0.984700000000     0.174510000000     0.729570000000     0.0315248  
C267     C      0.028590000000     0.174170000000     0.729260000000     0.0313353  
C268     C      0.029370000000     0.174380000000     0.784650000000     0.031544   
C269     C      0.984680000000     0.171000000000     0.528130000000     0.0314428  
C270     C      0.985800000000     0.174360000000     0.972820000000     0.0369566  
C271     C      0.029850000000     0.174500000000     0.973430000000     0.0369625  
C272     C      0.028380000000     0.171320000000     0.528750000000     0.0312476  
C273     C      0.984700000000     0.837640000000     0.724470000000     0.0314487  
C274     C      0.985730000000     0.842320000000     0.779730000000     0.0313426  
C275     C      0.029450000000     0.842510000000     0.779310000000     0.0314676  
C276     C      0.028720000000     0.837750000000     0.724050000000     0.0314476  
C277     C      0.837790000000     0.984000000000     0.786980000000     0.0314778  
C278     C      0.842530000000     0.985310000000     0.731730000000     0.0313755  
C279     C      0.842660000000     0.029020000000     0.732260000000     0.0313035  
C280     C      0.837880000000     0.028050000000     0.787520000000     0.0314606  
C281     C      0.985030000000     0.838770000000     0.976220000000     0.0368103  
C282     C      0.984750000000     0.838770000000     0.531610000000     0.0315572  
C283     C      0.028580000000     0.839230000000     0.531690000000     0.031458   
C284     C      0.028950000000     0.838730000000     0.976300000000     0.036869   
C285     C      0.839020000000     0.027350000000     0.974900000000     0.0369108  
C286     C      0.839310000000     0.027950000000     0.530290000000     0.0314313  
C287     C      0.839560000000     0.984070000000     0.530490000000     0.0314662  
C288     C      0.838780000000     0.983490000000     0.975110000000     0.0370363  
C289     C      0.145530000000     0.651580000000     0.770910000000     0.0333659  
C290     C      0.200880000000     0.650920000000     0.733910000000     0.0331817  
C291     C      0.199240000000     0.694760000000     0.732170000000     0.0329075  
C292     C      0.146880000000     0.695390000000     0.771530000000     0.0333325  
C293     C      0.200640000000     0.362510000000     0.775790000000     0.0333018  
C294     C      0.146290000000     0.362110000000     0.737970000000     0.0333316  
C295     C      0.147760000000     0.318320000000     0.737110000000     0.0333501  
C296     C      0.199070000000     0.318640000000     0.777230000000     0.033016   
C297     C      0.145360000000     0.651090000000     0.522580000000     0.0335093  
C298     C      0.201770000000     0.651110000000     0.986480000000     0.0398138  
C299     C      0.200250000000     0.694950000000     0.985230000000     0.038201   
C300     C      0.146840000000     0.694900000000     0.523800000000     0.0334148  
C301     C      0.201450000000     0.362060000000     0.986640000000     0.0397181  
C302     C      0.146850000000     0.362200000000     0.524280000000     0.0335805  
C303     C      0.148550000000     0.318370000000     0.525680000000     0.0337328  
C304     C      0.199980000000     0.318250000000     0.985630000000     0.0389541  
C305     C      0.134720000000     0.505690000000     0.896250000000     0.0316046  
C306     C      0.208740000000     0.509360000000     0.896220000000     0.0313091  
C307     C      0.208800000000     0.509960000000     0.863510000000     0.0313053  
C308     C      0.134800000000     0.506000000000     0.863390000000     0.0314557  
C309     C      0.212810000000     0.504370000000     0.613510000000     0.0312792  
C310     C      0.138770000000     0.507720000000     0.613500000000     0.0310992  
C311     C      0.138630000000     0.507460000000     0.646210000000     0.0311884  
C312     C      0.212650000000     0.503830000000     0.646380000000     0.0312928  
C313     C      0.362940000000     0.201120000000     0.737000000000     0.0332687  
C314     C      0.362230000000     0.146110000000     0.774280000000     0.0332572  
C315     C      0.318440000000     0.147460000000     0.774860000000     0.0333733  
C316     C      0.319080000000     0.199450000000     0.735240000000     0.0329135  
C317     C      0.651530000000     0.145500000000     0.741940000000     0.0333053  
C318     C      0.651520000000     0.200680000000     0.779080000000     0.0333566  
C319     C      0.695390000000     0.199040000000     0.780360000000     0.0329151  
C320     C      0.695330000000     0.146860000000     0.740880000000     0.0333058  
C321     C      0.363010000000     0.201620000000     0.990190000000     0.0394372  
C322     C      0.362310000000     0.149130000000     0.529470000000     0.0334777  
C323     C      0.318400000000     0.150820000000     0.530210000000     0.0336674  
C324     C      0.319250000000     0.200000000000     0.988620000000     0.0390872  
C325     C      0.696290000000     0.199190000000     0.524340000000     0.0327844  
C326     C      0.694510000000     0.147470000000     0.984540000000     0.0384789  
C327     C      0.650740000000     0.145910000000     0.986840000000     0.0395424  
C328     C      0.652440000000     0.200660000000     0.524300000000     0.0333012  
C329     C      0.504980000000     0.210990000000     0.899830000000     0.0313347  
C330     C      0.504180000000     0.136890000000     0.899920000000     0.0314865  
C331     C      0.504410000000     0.136820000000     0.867120000000     0.0314786  
C332     C      0.504590000000     0.210910000000     0.867030000000     0.0314565  
C333     C      0.509590000000     0.211030000000     0.617120000000     0.0312305  
C334     C      0.509570000000     0.136930000000     0.617030000000     0.0311554  
C335     C      0.509330000000     0.136850000000     0.649820000000     0.0311405  
C336     C      0.509940000000     0.210950000000     0.649910000000     0.0311309  
C337     C      0.867720000000     0.362810000000     0.772760000000     0.0334641  
C338     C      0.811390000000     0.361400000000     0.736590000000     0.0333686  
C339     C      0.812740000000     0.317530000000     0.736470000000     0.0330094  
C340     C      0.866050000000     0.319060000000     0.775090000000     0.0333392  
C341     C      0.812690000000     0.651550000000     0.732680000000     0.0334101  
C342     C      0.869470000000     0.650840000000     0.768440000000     0.0334352  
C343     C      0.867950000000     0.694590000000     0.770210000000     0.0332619  
C344     C      0.814110000000     0.695460000000     0.732000000000     0.0329495  
C345     C      0.868500000000     0.361200000000     0.518350000000     0.0332323  
C346     C      0.813240000000     0.361290000000     0.981270000000     0.0342221  
C347     C      0.814780000000     0.317420000000     0.980010000000     0.034004   
C348     C      0.867020000000     0.317400000000     0.519450000000     0.0333158  
C349     C      0.813430000000     0.649860000000     0.023190000000     0.0318338  
C350     C      0.867510000000     0.650510000000     0.485150000000     0.033303   
C351     C      0.866000000000     0.694310000000     0.484440000000     0.0333208  
C352     C      0.814990000000     0.693710000000     0.024780000000     0.0315935  
C353     C      0.801470000000     0.510150000000     0.893200000000     0.0314547  
C354     C      0.875490000000     0.506620000000     0.893010000000     0.0312076  
C355     C      0.875350000000     0.506930000000     0.860300000000     0.0313923  
C356     C      0.801320000000     0.510180000000     0.860320000000     0.0314875  
C357     C      0.879350000000     0.505540000000     0.643070000000     0.0313265  
C358     C      0.805330000000     0.501980000000     0.643030000000     0.0311282  
C359     C      0.805260000000     0.501580000000     0.610310000000     0.0310503  
C360     C      0.879270000000     0.505460000000     0.610210000000     0.0312248  
C361     C      0.362120000000     0.810680000000     0.773900000000     0.0335456  
C362     C      0.363160000000     0.866860000000     0.737620000000     0.0336628  
C363     C      0.319390000000     0.865420000000     0.735730000000     0.0332305  
C364     C      0.318250000000     0.812260000000     0.774480000000     0.0330007  
C365     C      0.651960000000     0.811370000000     0.776790000000     0.0335187  
C366     C      0.651500000000     0.868310000000     0.741170000000     0.033397   
C367     C      0.695270000000     0.866960000000     0.739710000000     0.0333434  
C368     C      0.695860000000     0.812930000000     0.777780000000     0.0329287  
C369     C      0.362650000000     0.867130000000     0.989720000000     0.0395913  
C370     C      0.362010000000     0.812270000000     0.527130000000     0.0332724  
C371     C      0.318120000000     0.813770000000     0.527850000000     0.0328954  
C372     C      0.318870000000     0.865570000000     0.988080000000     0.0386055  
C373     C      0.650690000000     0.811840000000     0.985970000000     0.0395777  
C374     C      0.651830000000     0.866140000000     0.523820000000     0.0332874  
C375     C      0.695630000000     0.864710000000     0.524160000000     0.0333544  
C376     C      0.694530000000     0.813450000000     0.984010000000     0.0382515  
C377     C      0.502840000000     0.804000000000     0.899060000000     0.0314169  
C378     C      0.506830000000     0.878000000000     0.899190000000     0.0316184  
C379     C      0.506780000000     0.878110000000     0.866330000000     0.0316452  
C380     C      0.503120000000     0.804090000000     0.866350000000     0.0314122  
C381     C      0.507080000000     0.874240000000     0.616360000000     0.0310883  
C382     C      0.510540000000     0.800230000000     0.616200000000     0.0311557  
C383     C      0.510430000000     0.800100000000     0.649080000000     0.0312103  
C384     C      0.507240000000     0.874130000000     0.649080000000     0.0309558  
H1       H      0.175020000000     0.045390000000     0.204190000000     0.0387637  
H2       H      0.174660000000     0.043860000000     0.304580000000     0.0390728  
H3       H      0.175210000000     0.968170000000     0.304000000000     0.0388402  
H4       H      0.175020000000     0.969650000000     0.203600000000     0.038985   
H5       H      0.175580000000     0.044680000000     0.055550000000     0.0390979  
H6       H      0.174480000000     0.044160000000     0.455140000000     0.0388371  
H7       H      0.173930000000     0.968490000000     0.455430000000     0.0391624  
H8       H      0.175440000000     0.968940000000     0.055830000000     0.0387777  
H9       H      0.969940000000     0.174280000000     0.307590000000     0.0393046  
H10      H      0.968440000000     0.174580000000     0.207190000000     0.0385715  
H11      H      0.044200000000     0.174130000000     0.206630000000     0.0388129  
H12      H      0.045610000000     0.174350000000     0.307030000000     0.039092   
H13      H      0.968450000000     0.169580000000     0.050500000000     0.0393536  
H14      H      0.970230000000     0.175630000000     0.450190000000     0.0386614  
H15      H      0.046470000000     0.175910000000     0.451230000000     0.0389368  
H16      H      0.043570000000     0.170070000000     0.051530000000     0.0391566  
H17      H      0.968270000000     0.835670000000     0.202210000000     0.0388469  
H18      H      0.970350000000     0.844190000000     0.302410000000     0.0391792  
H19      H      0.045550000000     0.844480000000     0.301710000000     0.0392832  
H20      H      0.044440000000     0.835860000000     0.201500000000     0.0386776  
H21      H      0.835820000000     0.967440000000     0.309180000000     0.0388768  
H22      H      0.844440000000     0.970070000000     0.209000000000     0.039114   
H23      H      0.844640000000     0.045180000000     0.209900000000     0.0392794  
H24      H      0.835970000000     0.043680000000     0.310090000000     0.0387095  
H25      H      0.969190000000     0.838610000000     0.453680000000     0.0388415  
H26      H      0.968740000000     0.838780000000     0.054090000000     0.0390575  
H27      H      0.044320000000     0.839420000000     0.054270000000     0.0393392  
H28      H      0.045050000000     0.838670000000     0.453860000000     0.0385402  
H29      H      0.838810000000     0.043020000000     0.452290000000     0.0392814  
H30      H      0.839510000000     0.044130000000     0.052700000000     0.0386483  
H31      H      0.839800000000     0.968390000000     0.053090000000     0.0388676  
H32      H      0.838540000000     0.967340000000     0.452690000000     0.0390332  
H33      H      0.123560000000     0.635550000000     0.286270000000     0.036352   
H34      H      0.222960000000     0.634280000000     0.219010000000     0.0361712  
H35      H      0.220630000000     0.710860000000     0.216410000000     0.0361807  
H36      H      0.125500000000     0.711970000000     0.287030000000     0.0363781  
H37      H      0.222280000000     0.379030000000     0.291110000000     0.0360244  
H38      H      0.124700000000     0.378250000000     0.222370000000     0.0364262  
H39      H      0.126810000000     0.301870000000     0.221210000000     0.0364125  
H40      H      0.220070000000     0.302420000000     0.293220000000     0.0360903  
H41      H      0.122920000000     0.634740000000     0.037370000000     0.0357529  
H42      H      0.224230000000     0.634740000000     0.471720000000     0.0357154  
H43      H      0.222060000000     0.711340000000     0.469950000000     0.0360592  
H44      H      0.125060000000     0.711240000000     0.039140000000     0.0361079  
H45      H      0.223120000000     0.378370000000     0.471200000000     0.0354782  
H46      H      0.125100000000     0.378650000000     0.039570000000     0.0353252  
H47      H      0.127590000000     0.302030000000     0.041640000000     0.0352848  
H48      H      0.221000000000     0.301820000000     0.469760000000     0.034766   
H49      H      0.104690000000     0.504000000000     0.408210000000     0.0387778  
H50      H      0.238890000000     0.510760000000     0.408040000000     0.0391075  
H51      H      0.238950000000     0.511660000000     0.351710000000     0.0389347  
H52      H      0.104790000000     0.504560000000     0.351390000000     0.0389179  
H53      H      0.242870000000     0.503100000000     0.101560000000     0.0386088  
H54      H      0.108640000000     0.509270000000     0.101670000000     0.0390256  
H55      H      0.108440000000     0.508770000000     0.157980000000     0.0389913  
H56      H      0.242640000000     0.502300000000     0.158400000000     0.0389553  
H57      H      0.379600000000     0.223050000000     0.221990000000     0.0361136  
H58      H      0.378250000000     0.124280000000     0.289760000000     0.0365226  
H59      H      0.301860000000     0.126210000000     0.290460000000     0.0364958  
H60      H      0.302980000000     0.220680000000     0.219360000000     0.0362804  
H61      H      0.635230000000     0.123620000000     0.226670000000     0.036289   
H62      H      0.635150000000     0.222700000000     0.294200000000     0.0361081  
H63      H      0.711780000000     0.220350000000     0.296030000000     0.0363366  
H64      H      0.711630000000     0.125540000000     0.225170000000     0.0363251  
H65      H      0.379640000000     0.222390000000     0.474270000000     0.0357682  
H66      H      0.378430000000     0.128230000000     0.045580000000     0.0355393  
H67      H      0.301670000000     0.130670000000     0.046510000000     0.0353919  
H68      H      0.303210000000     0.220040000000     0.471840000000     0.0347002  
H69      H      0.713330000000     0.220330000000     0.039740000000     0.0361096  
H70      H      0.710130000000     0.126350000000     0.468300000000     0.0365477  
H71      H      0.633710000000     0.124140000000     0.471930000000     0.0364079  
H72      H      0.636800000000     0.222460000000     0.040030000000     0.0358051  
H73      H      0.505260000000     0.241130000000     0.411690000000     0.0388447  
H74      H      0.504000000000     0.106800000000     0.411850000000     0.038985   
H75      H      0.504230000000     0.106680000000     0.355250000000     0.0390035  
H76      H      0.504770000000     0.241010000000     0.355090000000     0.0388757  
H77      H      0.509660000000     0.241170000000     0.105250000000     0.0386606  
H78      H      0.509420000000     0.106830000000     0.105100000000     0.0385852  
H79      H      0.509170000000     0.106710000000     0.161690000000     0.0386239  
H80      H      0.510080000000     0.241040000000     0.161850000000     0.0388918  
H81      H      0.890190000000     0.379730000000     0.287150000000     0.0361281  
H82      H      0.789040000000     0.377180000000     0.221400000000     0.0356694  
H83      H      0.790940000000     0.300560000000     0.221530000000     0.036074   
H84      H      0.887770000000     0.303330000000     0.290820000000     0.0363494  
H85      H      0.790060000000     0.635470000000     0.217900000000     0.0358069  
H86      H      0.892060000000     0.634240000000     0.282950000000     0.0361314  
H87      H      0.889850000000     0.710580000000     0.285650000000     0.036207   
H88      H      0.792060000000     0.712170000000     0.217110000000     0.0360729  
H89      H      0.890450000000     0.377470000000     0.033580000000     0.0372485  
H90      H      0.791220000000     0.377690000000     0.466170000000     0.0361823  
H91      H      0.793410000000     0.301070000000     0.464370000000     0.036332   
H92      H      0.888330000000     0.301060000000     0.035150000000     0.0371327  
H93      H      0.791910000000     0.633220000000     0.538540000000     0.0360751  
H94      H      0.889000000000     0.634480000000     0.969410000000     0.036573   
H95      H      0.886810000000     0.710880000000     0.968500000000     0.0364866  
H96      H      0.794110000000     0.709830000000     0.540910000000     0.0362421  
H97      H      0.771470000000     0.511440000000     0.405220000000     0.0390306  
H98      H      0.905670000000     0.505160000000     0.404770000000     0.0390924  
H99      H      0.905490000000     0.505610000000     0.348460000000     0.0391424  
H100     H      0.771260000000     0.511560000000     0.348380000000     0.0388466  
H101     H      0.909380000000     0.507160000000     0.155030000000     0.0386835  
H102     H      0.775180000000     0.500550000000     0.154850000000     0.0390021  
H103     H      0.775110000000     0.499980000000     0.098510000000     0.0386281  
H104     H      0.909290000000     0.506940000000     0.098220000000     0.0385784  
H105     H      0.378070000000     0.788310000000     0.288990000000     0.035695   
H106     H      0.379940000000     0.889200000000     0.223010000000     0.0359192  
H107     H      0.303490000000     0.887140000000     0.220100000000     0.0362452  
H108     H      0.301420000000     0.790600000000     0.289610000000     0.0360754  
H109     H      0.635780000000     0.788630000000     0.291410000000     0.035893   
H110     H      0.635000000000     0.890920000000     0.226620000000     0.0361039  
H111     H      0.711360000000     0.889010000000     0.224450000000     0.0361727  
H112     H      0.712460000000     0.790870000000     0.292720000000     0.0361556  
H113     H      0.379230000000     0.888920000000     0.474540000000     0.036496   
H114     H      0.378110000000     0.790430000000     0.042550000000     0.0357565  
H115     H      0.301470000000     0.792580000000     0.043440000000     0.0360389  
H116     H      0.302830000000     0.886690000000     0.472070000000     0.0364482  
H117     H      0.633870000000     0.790220000000     0.470810000000     0.0361529  
H118     H      0.635990000000     0.887710000000     0.039600000000     0.0360667  
H119     H      0.712400000000     0.885660000000     0.039880000000     0.0362278  
H120     H      0.710440000000     0.792500000000     0.467820000000     0.0362623  
H121     H      0.501250000000     0.773850000000     0.410860000000     0.0390175  
H122     H      0.508390000000     0.908000000000     0.411190000000     0.0390706  
H123     H      0.508390000000     0.908140000000     0.354380000000     0.038897   
H124     H      0.501600000000     0.773960000000     0.354530000000     0.0391666  
H125     H      0.505690000000     0.904420000000     0.104590000000     0.0386633  
H126     H      0.511870000000     0.770230000000     0.104190000000     0.038738   
H127     H      0.511750000000     0.770050000000     0.161030000000     0.0387181  
H128     H      0.505900000000     0.904270000000     0.160910000000     0.0389805  
H129     H      0.175020000000     0.045390000000     0.704190000000     0.0387792  
H130     H      0.174660000000     0.043860000000     0.804580000000     0.039167   
H131     H      0.175210000000     0.968170000000     0.804000000000     0.0389309  
H132     H      0.175020000000     0.969650000000     0.703600000000     0.0390024  
H133     H      0.175580000000     0.044680000000     0.555540000000     0.0390601  
H134     H      0.174480000000     0.044160000000     0.955140000000     0.0385058  
H135     H      0.173930000000     0.968490000000     0.955430000000     0.0387933  
H136     H      0.175440000000     0.968940000000     0.555830000000     0.0387363  
H137     H      0.969940000000     0.174280000000     0.807600000000     0.0394046  
H138     H      0.968440000000     0.174580000000     0.707190000000     0.038579   
H139     H      0.044200000000     0.174130000000     0.706630000000     0.0388185  
H140     H      0.045610000000     0.174350000000     0.807030000000     0.0392107  
H141     H      0.968450000000     0.169580000000     0.550500000000     0.0392824  
H142     H      0.970230000000     0.175630000000     0.950190000000     0.0383734  
H143     H      0.046470000000     0.175910000000     0.951230000000     0.0386262  
H144     H      0.043570000000     0.170070000000     0.551520000000     0.0391175  
H145     H      0.968270000000     0.835670000000     0.702210000000     0.0388672  
H146     H      0.970350000000     0.844190000000     0.802410000000     0.0392672  
H147     H      0.045550000000     0.844480000000     0.801710000000     0.0393741  
H148     H      0.044440000000     0.835860000000     0.701500000000     0.0386943  
H149     H      0.835820000000     0.967440000000     0.809180000000     0.038992   
H150     H      0.844440000000     0.970070000000     0.708990000000     0.0391077  
H151     H      0.844640000000     0.045180000000     0.709890000000     0.0393012  
H152     H      0.835970000000     0.043680000000     0.810090000000     0.0387943  
H153     H      0.969190000000     0.838610000000     0.953680000000     0.0384676  
H154     H      0.968740000000     0.838780000000     0.554090000000     0.0390195  
H155     H      0.044320000000     0.839420000000     0.554270000000     0.0393046  
H156     H      0.045050000000     0.838670000000     0.953860000000     0.0382403  
H157     H      0.838820000000     0.043020000000     0.952290000000     0.0389122  
H158     H      0.839510000000     0.044130000000     0.552700000000     0.0386108  
H159     H      0.839800000000     0.968390000000     0.553090000000     0.0388181  
H160     H      0.838540000000     0.967340000000     0.952690000000     0.0387014  
H161     H      0.123560000000     0.635550000000     0.786270000000     0.0364618  
H162     H      0.222960000000     0.634280000000     0.719010000000     0.0362493  
H163     H      0.220630000000     0.710860000000     0.716410000000     0.036227   
H164     H      0.125500000000     0.711970000000     0.787030000000     0.0364638  
H165     H      0.222280000000     0.379030000000     0.791110000000     0.0361755  
H166     H      0.124700000000     0.378250000000     0.722370000000     0.0364453  
H167     H      0.126810000000     0.301870000000     0.721210000000     0.0364275  
H168     H      0.220070000000     0.302420000000     0.793220000000     0.036211   
H169     H      0.122920000000     0.634740000000     0.537370000000     0.0360947  
H170     H      0.224230000000     0.634740000000     0.971730000000     0.0363423  
H171     H      0.222060000000     0.711340000000     0.969950000000     0.0364213  
H172     H      0.125060000000     0.711240000000     0.539140000000     0.0363008  
H173     H      0.223120000000     0.378370000000     0.971200000000     0.0360409  
H174     H      0.125100000000     0.378650000000     0.539570000000     0.0355864  
H175     H      0.127590000000     0.302030000000     0.541640000000     0.035363   
H176     H      0.221000000000     0.301820000000     0.969760000000     0.0348732  
H177     H      0.104690000000     0.504000000000     0.908210000000     0.0396062  
H178     H      0.238890000000     0.510760000000     0.908040000000     0.0398755  
H179     H      0.238950000000     0.511660000000     0.851710000000     0.0392158  
H180     H      0.104790000000     0.504560000000     0.851390000000     0.0391502  
H181     H      0.242870000000     0.503100000000     0.601560000000     0.0389688  
H182     H      0.108640000000     0.509270000000     0.601670000000     0.0391961  
H183     H      0.108440000000     0.508770000000     0.657980000000     0.0390436  
H184     H      0.242640000000     0.502300000000     0.658400000000     0.0391208  
H185     H      0.379600000000     0.223050000000     0.721990000000     0.0362002  
H186     H      0.378250000000     0.124280000000     0.789760000000     0.0366361  
H187     H      0.301860000000     0.126210000000     0.790460000000     0.0365626  
H188     H      0.302980000000     0.220680000000     0.719360000000     0.036345   
H189     H      0.635230000000     0.123620000000     0.726670000000     0.0363136  
H190     H      0.635150000000     0.222700000000     0.794200000000     0.0362771  
H191     H      0.711780000000     0.220350000000     0.796030000000     0.03647    
H192     H      0.711630000000     0.125540000000     0.725170000000     0.036338   
H193     H      0.379640000000     0.222390000000     0.974270000000     0.0363251  
H194     H      0.378430000000     0.128220000000     0.545580000000     0.0358012  
H195     H      0.301670000000     0.130670000000     0.546510000000     0.0355349  
H196     H      0.303210000000     0.220040000000     0.971840000000     0.0347953  
H197     H      0.713330000000     0.220330000000     0.539740000000     0.0364392  
H198     H      0.710140000000     0.126350000000     0.968300000000     0.0367671  
H199     H      0.633700000000     0.124140000000     0.971930000000     0.0370237  
H200     H      0.636800000000     0.222460000000     0.540030000000     0.0361718  
H201     H      0.505260000000     0.241130000000     0.911690000000     0.039672   
H202     H      0.504000000000     0.106800000000     0.911860000000     0.0397841  
H203     H      0.504230000000     0.106680000000     0.855250000000     0.0392195  
H204     H      0.504770000000     0.241010000000     0.855090000000     0.0391721  
H205     H      0.509660000000     0.241170000000     0.605250000000     0.0389872  
H206     H      0.509420000000     0.106830000000     0.605100000000     0.0387891  
H207     H      0.509170000000     0.106710000000     0.661690000000     0.0386752  
H208     H      0.510080000000     0.241040000000     0.661850000000     0.039046   
H209     H      0.890190000000     0.379730000000     0.787140000000     0.0362441  
H210     H      0.789040000000     0.377180000000     0.721400000000     0.0357674  
H211     H      0.790940000000     0.300560000000     0.721530000000     0.0361132  
H212     H      0.887770000000     0.303330000000     0.790820000000     0.0364559  
H213     H      0.790060000000     0.635470000000     0.717900000000     0.0358878  
H214     H      0.892060000000     0.634240000000     0.782950000000     0.0362202  
H215     H      0.889850000000     0.710580000000     0.785660000000     0.0362842  
H216     H      0.792060000000     0.712170000000     0.717110000000     0.0361321  
H217     H      0.890450000000     0.377470000000     0.533580000000     0.0363645  
H218     H      0.791220000000     0.377690000000     0.966170000000     0.0373747  
H219     H      0.793410000000     0.301070000000     0.964370000000     0.0375232  
H220     H      0.888330000000     0.301060000000     0.535150000000     0.0363129  
H221     H      0.791910000000     0.633220000000     0.038540000000     0.0359222  
H222     H      0.889000000000     0.634480000000     0.469410000000     0.0363845  
H223     H      0.886810000000     0.710880000000     0.468500000000     0.0363542  
H224     H      0.794110000000     0.709830000000     0.040910000000     0.0359515  
H225     H      0.771470000000     0.511440000000     0.905220000000     0.0397837  
H226     H      0.905670000000     0.505160000000     0.904780000000     0.039809   
H227     H      0.905490000000     0.505610000000     0.848460000000     0.0393401  
H228     H      0.771260000000     0.511560000000     0.848380000000     0.0391241  
H229     H      0.909380000000     0.507160000000     0.655030000000     0.038751   
H230     H      0.775180000000     0.500550000000     0.654850000000     0.0391747  
H231     H      0.775110000000     0.499980000000     0.598510000000     0.03903    
H232     H      0.909290000000     0.506940000000     0.598220000000     0.0388516  
H233     H      0.378070000000     0.788310000000     0.788990000000     0.035844   
H234     H      0.379940000000     0.889200000000     0.723010000000     0.0359474  
H235     H      0.303490000000     0.887150000000     0.720100000000     0.0362625  
H236     H      0.301420000000     0.790600000000     0.789610000000     0.0361929  
H237     H      0.635780000000     0.788630000000     0.791410000000     0.03606    
H238     H      0.635000000000     0.890920000000     0.726620000000     0.0361243  
H239     H      0.711360000000     0.889010000000     0.724440000000     0.036182   
H240     H      0.712460000000     0.790870000000     0.792720000000     0.0362943  
H241     H      0.379240000000     0.888920000000     0.974550000000     0.0371079  
H242     H      0.378110000000     0.790430000000     0.542550000000     0.0361053  
H243     H      0.301470000000     0.792580000000     0.543440000000     0.0362756  
H244     H      0.302830000000     0.886690000000     0.972070000000     0.0367069  
H245     H      0.633870000000     0.790220000000     0.970810000000     0.0367729  
H246     H      0.635990000000     0.887710000000     0.539600000000     0.0363739  
H247     H      0.712400000000     0.885660000000     0.539880000000     0.036381   
H248     H      0.710440000000     0.792500000000     0.967820000000     0.0365777  
H249     H      0.501250000000     0.773850000000     0.910860000000     0.0398645  
H250     H      0.508390000000     0.908000000000     0.911180000000     0.0398474  
H251     H      0.508390000000     0.908140000000     0.854380000000     0.0391143  
H252     H      0.501600000000     0.773960000000     0.854530000000     0.0394745  
H253     H      0.505690000000     0.904420000000     0.604590000000     0.0388705  
H254     H      0.511870000000     0.770230000000     0.604190000000     0.0390576  
H255     H      0.511750000000     0.770050000000     0.661030000000     0.0388641  
H256     H      0.505900000000     0.904270000000     0.660910000000     0.0390316  
N1       N      0.174750000000     0.050620000000     0.254410000000    -0.180042   
N2       N      0.175080000000     0.962920000000     0.253770000000    -0.180014   
N3       N      0.174990000000     0.050420000000     0.505290000000    -0.180268   
N4       N      0.174590000000     0.962720000000     0.005680000000    -0.18265    
N5       N      0.963190000000     0.174390000000     0.257410000000    -0.180065   
N6       N      0.050900000000     0.174170000000     0.256810000000    -0.180097   
N7       N      0.963300000000     0.172600000000     0.000220000000    -0.182446   
N8       N      0.051050000000     0.173070000000     0.001450000000    -0.182663   
N9       N      0.963290000000     0.839870000000     0.252360000000    -0.180012   
N10      N      0.051010000000     0.840160000000     0.251520000000    -0.180047   
N11      N      0.840090000000     0.962730000000     0.259030000000    -0.179958   
N12      N      0.840300000000     0.050470000000     0.260100000000    -0.17993    
N13      N      0.962970000000     0.838700000000     0.003890000000    -0.182652   
N14      N      0.050680000000     0.839120000000     0.504040000000    -0.180102   
N15      N      0.839230000000     0.049560000000     0.002490000000    -0.182608   
N16      N      0.839240000000     0.961870000000     0.002900000000    -0.182645   
N17      N      0.173360000000     0.629630000000     0.252790000000    -0.181167   
N18      N      0.173120000000     0.716690000000     0.251690000000    -0.181241   
N19      N      0.173570000000     0.383930000000     0.256650000000    -0.181146   
N20      N      0.173510000000     0.296860000000     0.257210000000    -0.181226   
N21      N      0.173620000000     0.629500000000     0.004580000000    -0.185197   
N22      N      0.173590000000     0.716520000000     0.004570000000    -0.183793   
N23      N      0.174050000000     0.383720000000     0.005320000000    -0.185167   
N24      N      0.174260000000     0.296720000000     0.505700000000    -0.181521   
N25      N      0.171740000000     0.507220000000     0.412620000000    -0.180297   
N26      N      0.171890000000     0.508100000000     0.347070000000    -0.180146   
N27      N      0.175820000000     0.506260000000     0.097120000000    -0.180174   
N28      N      0.175520000000     0.505510000000     0.162670000000    -0.180241   
N29      N      0.384210000000     0.173760000000     0.256010000000    -0.181269   
N30      N      0.297150000000     0.173500000000     0.254880000000    -0.181283   
N31      N      0.629900000000     0.173230000000     0.260380000000    -0.181315   
N32      N      0.716980000000     0.172990000000     0.260570000000    -0.181275   
N33      N      0.384260000000     0.175230000000     0.009920000000    -0.184853   
N34      N      0.297240000000     0.175260000000     0.009070000000    -0.183956   
N35      N      0.717020000000     0.173360000000     0.003870000000    -0.183645   
N36      N      0.629970000000     0.173280000000     0.006120000000    -0.184889   
N37      N      0.504780000000     0.173970000000     0.416260000000    -0.180147   
N38      N      0.504630000000     0.173830000000     0.350690000000    -0.180077   
N39      N      0.509390000000     0.174020000000     0.100700000000    -0.180118   
N40      N      0.509490000000     0.173860000000     0.166250000000    -0.180192   
N41      N      0.839660000000     0.383710000000     0.254110000000    -0.181369   
N42      N      0.839340000000     0.296690000000     0.256310000000    -0.181215   
N43      N      0.841000000000     0.629570000000     0.250410000000    -0.181286   
N44      N      0.840850000000     0.716640000000     0.251510000000    -0.181089   
N45      N      0.840780000000     0.382870000000     0.999920000000    -0.172004   
N46      N      0.840810000000     0.295780000000     0.999780000000    -0.172357   
N47      N      0.840380000000     0.628560000000     0.003870000000    -0.183414   
N48      N      0.840390000000     0.715630000000     0.004720000000    -0.183785   
N49      N      0.838580000000     0.508150000000     0.409490000000    -0.180098   
N50      N      0.838310000000     0.508510000000     0.343920000000    -0.180216   
N51      N      0.842330000000     0.504070000000     0.159430000000    -0.180317   
N52      N      0.842180000000     0.503580000000     0.093880000000    -0.180061   
N53      N      0.384240000000     0.838750000000     0.256080000000    -0.181477   
N54      N      0.297220000000     0.838880000000     0.254780000000    -0.181223   
N55      N      0.630100000000     0.839690000000     0.258990000000    -0.181444   
N56      N      0.717180000000     0.839870000000     0.258500000000    -0.181201   
N57      N      0.383950000000     0.839660000000     0.008590000000    -0.184996   
N58      N      0.296890000000     0.839580000000     0.507670000000    -0.181243   
N59      N      0.629640000000     0.838880000000     0.005370000000    -0.184971   
N60      N      0.716700000000     0.839010000000     0.003790000000    -0.183711   
N61      N      0.504940000000     0.840900000000     0.415500000000    -0.180271   
N62      N      0.505170000000     0.841100000000     0.349970000000    -0.180297   
N63      N      0.508680000000     0.837340000000     0.099900000000    -0.17995    
N64      N      0.508750000000     0.837090000000     0.165470000000    -0.180145   
N65      N      0.174750000000     0.050620000000     0.754410000000    -0.18004    
N66      N      0.175080000000     0.962920000000     0.753770000000    -0.180013   
N67      N      0.174990000000     0.050420000000     0.005290000000    -0.182826   
N68      N      0.174590000000     0.962720000000     0.505680000000    -0.180112   
N69      N      0.963190000000     0.174390000000     0.757410000000    -0.180069   
N70      N      0.050900000000     0.174170000000     0.756810000000    -0.18009    
N71      N      0.963300000000     0.172600000000     0.500220000000    -0.179965   
N72      N      0.051050000000     0.173060000000     0.501450000000    -0.180059   
N73      N      0.963290000000     0.839870000000     0.752360000000    -0.180011   
N74      N      0.051010000000     0.840160000000     0.751520000000    -0.180046   
N75      N      0.840090000000     0.962730000000     0.759030000000    -0.179958   
N76      N      0.840300000000     0.050470000000     0.760110000000    -0.179927   
N77      N      0.962970000000     0.838700000000     0.503890000000    -0.180105   
N78      N      0.050680000000     0.839120000000     0.004050000000    -0.182641   
N79      N      0.839230000000     0.049560000000     0.502490000000    -0.180073   
N80      N      0.839240000000     0.961870000000     0.502900000000    -0.180098   
N81      N      0.173360000000     0.629630000000     0.752790000000    -0.181148   
N82      N      0.173120000000     0.716690000000     0.751690000000    -0.181286   
N83      N      0.173570000000     0.383930000000     0.756650000000    -0.181126   
N84      N      0.173510000000     0.296860000000     0.757210000000    -0.181214   
N85      N      0.173620000000     0.629500000000     0.504580000000    -0.181449   
N86      N      0.173590000000     0.716520000000     0.504570000000    -0.181342   
N87      N      0.174050000000     0.383720000000     0.505320000000    -0.181447   
N88      N      0.174260000000     0.296720000000     0.005700000000    -0.183919   
N89      N      0.171740000000     0.507220000000     0.912620000000    -0.179761   
N90      N      0.171890000000     0.508110000000     0.847070000000    -0.180115   
N91      N      0.175820000000     0.506260000000     0.597120000000    -0.180296   
N92      N      0.175520000000     0.505510000000     0.662670000000    -0.180235   
N93      N      0.384210000000     0.173760000000     0.756010000000    -0.181247   
N94      N      0.297150000000     0.173500000000     0.754880000000    -0.181298   
N95      N      0.629900000000     0.173230000000     0.760380000000    -0.181298   
N96      N      0.716980000000     0.172990000000     0.760570000000    -0.181271   
N97      N      0.384260000000     0.175230000000     0.509920000000    -0.181143   
N98      N      0.297240000000     0.175260000000     0.509070000000    -0.181461   
N99      N      0.717020000000     0.173360000000     0.503870000000    -0.181129   
N100     N      0.629970000000     0.173280000000     0.506120000000    -0.181159   
N101     N      0.504780000000     0.173970000000     0.916260000000    -0.179573   
N102     N      0.504630000000     0.173830000000     0.850690000000    -0.180052   
N103     N      0.509390000000     0.174020000000     0.600700000000    -0.18017    
N104     N      0.509490000000     0.173860000000     0.666250000000    -0.180183   
N105     N      0.839660000000     0.383710000000     0.754110000000    -0.181351   
N106     N      0.839340000000     0.296690000000     0.756310000000    -0.181232   
N107     N      0.841000000000     0.629570000000     0.750410000000    -0.181269   
N108     N      0.840850000000     0.716650000000     0.751510000000    -0.181138   
N109     N      0.840780000000     0.382870000000     0.499920000000    -0.181237   
N110     N      0.840820000000     0.295780000000     0.499780000000    -0.181265   
N111     N      0.840380000000     0.628560000000     0.503870000000    -0.181231   
N112     N      0.840390000000     0.715630000000     0.504720000000    -0.181228   
N113     N      0.838580000000     0.508150000000     0.909490000000    -0.179476   
N114     N      0.838310000000     0.508510000000     0.843920000000    -0.180201   
N115     N      0.842330000000     0.504070000000     0.659430000000    -0.180298   
N116     N      0.842180000000     0.503580000000     0.593880000000    -0.180188   
N117     N      0.384240000000     0.838750000000     0.756080000000    -0.181477   
N118     N      0.297220000000     0.838880000000     0.754780000000    -0.181233   
N119     N      0.630100000000     0.839690000000     0.758990000000    -0.181425   
N120     N      0.717180000000     0.839870000000     0.758500000000    -0.181193   
N121     N      0.383950000000     0.839660000000     0.508590000000    -0.181257   
N122     N      0.296890000000     0.839580000000     0.007670000000    -0.183727   
N123     N      0.629640000000     0.838880000000     0.505370000000    -0.181231   
N124     N      0.716700000000     0.839020000000     0.503790000000    -0.181248   
N125     N      0.504940000000     0.840900000000     0.915500000000    -0.17973    
N126     N      0.505170000000     0.841100000000     0.849970000000    -0.180269   
N127     N      0.508680000000     0.837340000000     0.599890000000    -0.180077   
N128     N      0.508750000000     0.837090000000     0.665470000000    -0.180138   
Ni1      Ni     0.506960000000     0.876440000000     0.008030000000     0.997485   
Ni2      Ni     0.506640000000     0.801810000000     0.507310000000     1.00096    
Ni3      Ni     0.507030000000     0.876470000000     0.256830000000     1.00726    
Ni4      Ni     0.507270000000     0.801660000000     0.258670000000     1.00357    
Ni5      Ni     0.877730000000     0.505800000000     0.001320000000     0.990119   
Ni6      Ni     0.803090000000     0.505640000000     0.502060000000     1.00038    
Ni7      Ni     0.877670000000     0.506430000000     0.252580000000     1.00649    
Ni8      Ni     0.802860000000     0.506780000000     0.250740000000     1.00357    
Ni9      Ni     0.506780000000     0.136760000000     0.008510000000     0.993543   
Ni10     Ni     0.507420000000     0.211420000000     0.508470000000     1.00418    
Ni11     Ni     0.506950000000     0.136420000000     0.258450000000     1.00518    
Ni12     Ni     0.507140000000     0.211090000000     0.258460000000     1.00064    
Ni13     Ni     0.136410000000     0.506540000000     0.005810000000     0.99839    
Ni14     Ni     0.211220000000     0.506650000000     0.503930000000     1.00596    
Ni15     Ni     0.136350000000     0.506750000000     0.254490000000     1.00508    
Ni16     Ni     0.210990000000     0.506820000000     0.255240000000     1.00065    
Ni17     Ni     0.839960000000     0.837770000000     0.475890000000     1.00157    
Ni18     Ni     0.839200000000     0.839210000000     0.031680000000     0.995117   
Ni19     Ni     0.838440000000     0.841190000000     0.227560000000     1.00257    
Ni20     Ni     0.841490000000     0.837620000000     0.283210000000     1.0007     
Ni21     Ni     0.840950000000     0.173800000000     0.029170000000     1.00059    
Ni22     Ni     0.838800000000     0.172060000000     0.473430000000     0.994332   
Ni23     Ni     0.838860000000     0.172780000000     0.231010000000     1.00946    
Ni24     Ni     0.840780000000     0.174980000000     0.286740000000     0.994923   
Ni25     Ni     0.172630000000     0.173410000000     0.033190000000     0.999809   
Ni26     Ni     0.176260000000     0.174310000000     0.477310000000     1.0013     
Ni27     Ni     0.175030000000     0.173090000000     0.283670000000     1.00409    
Ni28     Ni     0.173550000000     0.174920000000     0.227900000000     1.00174    
Ni29     Ni     0.172980000000     0.838750000000     0.033340000000     0.994814   
Ni30     Ni     0.175140000000     0.839930000000     0.477570000000     1.00227    
Ni31     Ni     0.175400000000     0.840280000000     0.224800000000     0.995355   
Ni32     Ni     0.173410000000     0.838790000000     0.280550000000     1.00955    
Ni33     Ni     0.506960000000     0.876440000000     0.508030000000     1.00459    
Ni34     Ni     0.506640000000     0.801810000000     0.007310000000     0.993722   
Ni35     Ni     0.507030000000     0.876470000000     0.756830000000     1.00723    
Ni36     Ni     0.507270000000     0.801660000000     0.758670000000     1.00374    
Ni37     Ni     0.877730000000     0.505810000000     0.501320000000     1.00469    
Ni38     Ni     0.803090000000     0.505640000000     0.002060000000     0.985711   
Ni39     Ni     0.877670000000     0.506430000000     0.752580000000     1.00646    
Ni40     Ni     0.802860000000     0.506780000000     0.750740000000     1.00372    
Ni41     Ni     0.506780000000     0.136760000000     0.508510000000     1.00067    
Ni42     Ni     0.507420000000     0.211420000000     0.008470000000     0.996889   
Ni43     Ni     0.506950000000     0.136420000000     0.758450000000     1.00514    
Ni44     Ni     0.507140000000     0.211090000000     0.758460000000     1.0008     
Ni45     Ni     0.136410000000     0.506540000000     0.505810000000     1.00535    
Ni46     Ni     0.211220000000     0.506660000000     0.003930000000     0.998491   
Ni47     Ni     0.136350000000     0.506750000000     0.754490000000     1.00484    
Ni48     Ni     0.210990000000     0.506820000000     0.755240000000     1.00085    
Ni49     Ni     0.839960000000     0.837770000000     0.975890000000     1.00614    
Ni50     Ni     0.839200000000     0.839210000000     0.531670000000     1.00401    
Ni51     Ni     0.838440000000     0.841190000000     0.727560000000     1.00251    
Ni52     Ni     0.841490000000     0.837620000000     0.783210000000     1.00079    
Ni53     Ni     0.840950000000     0.173800000000     0.529170000000     1.00995    
Ni54     Ni     0.838800000000     0.172060000000     0.973430000000     0.998434   
Ni55     Ni     0.838860000000     0.172790000000     0.731010000000     1.00946    
Ni56     Ni     0.840780000000     0.174980000000     0.786740000000     0.994941   
Ni57     Ni     0.172630000000     0.173410000000     0.533180000000     1.00852    
Ni58     Ni     0.176260000000     0.174310000000     0.977300000000     1.00593    
Ni59     Ni     0.175030000000     0.173090000000     0.783670000000     1.00419    
Ni60     Ni     0.173550000000     0.174920000000     0.727900000000     1.00167    
Ni61     Ni     0.172980000000     0.838750000000     0.533340000000     1.00373    
Ni62     Ni     0.175140000000     0.839930000000     0.977570000000     1.0067     
Ni63     Ni     0.175400000000     0.840280000000     0.724800000000     0.995307   
Ni64     Ni     0.173410000000     0.838790000000     0.780550000000     1.00969    
O1       O      0.504970000000     0.872830000000     0.052920000000    -0.44672    
O2       O      0.508930000000     0.874990000000     0.463060000000    -0.446913   
O3       O      0.446870000000     0.874180000000     0.005850000000    -0.448603   
O4       O      0.567040000000     0.873600000000     0.510040000000    -0.447123   
O5       O      0.566670000000     0.804190000000     0.003420000000    -0.447192   
O6       O      0.446620000000     0.804560000000     0.511150000000    -0.445557   
O7       O      0.502410000000     0.805440000000     0.462520000000    -0.447399   
O8       O      0.510890000000     0.803230000000     0.052230000000    -0.444814   
O9       O      0.507810000000     0.872760000000     0.212220000000    -0.451191   
O10      O      0.506250000000     0.875220000000     0.302110000000    -0.445393   
O11      O      0.567170000000     0.874230000000     0.256910000000    -0.448064   
O12      O      0.446920000000     0.873820000000     0.255620000000    -0.447962   
O13      O      0.447050000000     0.803910000000     0.258360000000    -0.446686   
O14      O      0.567470000000     0.804370000000     0.260160000000    -0.446309   
O15      O      0.506000000000     0.805370000000     0.303260000000    -0.450736   
O16      O      0.508500000000     0.802920000000     0.213350000000    -0.444373   
O17      O      0.876290000000     0.507540000000     0.046310000000    -0.445258   
O18      O      0.874100000000     0.504080000000     0.456430000000    -0.447693   
O19      O      0.875020000000     0.565880000000     0.999460000000    -0.43439    
O20      O      0.875350000000     0.445710000000     0.503270000000    -0.447047   
O21      O      0.805730000000     0.445630000000     0.998010000000    -0.431469   
O22      O      0.805600000000     0.565660000000     0.506100000000    -0.445296   
O23      O      0.804500000000     0.510130000000     0.457160000000    -0.44585    
O24      O      0.806720000000     0.501190000000     0.046850000000    -0.445618   
O25      O      0.876430000000     0.505380000000     0.207290000000    -0.445291   
O26      O      0.873970000000     0.507460000000     0.297180000000    -0.451108   
O27      O      0.874920000000     0.446320000000     0.254030000000    -0.447406   
O28      O      0.875510000000     0.566580000000     0.252340000000    -0.447796   
O29      O      0.805650000000     0.566960000000     0.249070000000    -0.446271   
O30      O      0.805000000000     0.446570000000     0.251280000000    -0.446605   
O31      O      0.804120000000     0.508250000000     0.296050000000    -0.444306   
O32      O      0.806580000000     0.505230000000     0.206140000000    -0.450633   
O33      O      0.511020000000     0.139250000000     0.053350000000    -0.445938   
O34      O      0.502580000000     0.139280000000     0.463640000000    -0.446613   
O35      O      0.566820000000     0.138850000000     0.004610000000    -0.447043   
O36      O      0.446760000000     0.139830000000     0.512400000000    -0.445254   
O37      O      0.447300000000     0.209380000000     0.006590000000    -0.448456   
O38      O      0.567520000000     0.208410000000     0.510310000000    -0.446715   
O39      O      0.508970000000     0.208840000000     0.463500000000    -0.446809   
O40      O      0.505820000000     0.208920000000     0.053440000000    -0.445739   
O41      O      0.505630000000     0.138970000000     0.213490000000    -0.447373   
O42      O      0.508280000000     0.138930000000     0.303430000000    -0.446859   
O43      O      0.446880000000     0.139080000000     0.260070000000    -0.447631   
O44      O      0.567040000000     0.138780000000     0.256800000000    -0.447572   
O45      O      0.567170000000     0.208350000000     0.262400000000    -0.445543   
O46      O      0.447100000000     0.208660000000     0.254460000000    -0.445318   
O47      O      0.502840000000     0.208580000000     0.303320000000    -0.446637   
O48      O      0.511440000000     0.208590000000     0.213610000000    -0.44682    
O49      O      0.140140000000     0.506880000000     0.050400000000    -0.4501     
O50      O      0.137630000000     0.506230000000     0.460500000000    -0.444881   
O51      O      0.138960000000     0.446380000000     0.006690000000    -0.447687   
O52      O      0.138770000000     0.566700000000     0.506120000000    -0.447378   
O53      O      0.208710000000     0.566810000000     0.003470000000    -0.448736   
O54      O      0.208830000000     0.446500000000     0.503230000000    -0.447428   
O55      O      0.207480000000     0.506950000000     0.459330000000    -0.451015   
O56      O      0.209990000000     0.506360000000     0.049250000000    -0.443774   
O57      O      0.137770000000     0.504710000000     0.299470000000    -0.44697    
O58      O      0.139990000000     0.508800000000     0.209630000000    -0.448251   
O59      O      0.138990000000     0.446680000000     0.252440000000    -0.447245   
O60      O      0.138790000000     0.566840000000     0.256590000000    -0.447108   
O61      O      0.208420000000     0.566840000000     0.251330000000    -0.44547    
O62      O      0.208410000000     0.446790000000     0.259060000000    -0.445577   
O63      O      0.209570000000     0.502670000000     0.210320000000    -0.445996   
O64      O      0.207340000000     0.510990000000     0.300040000000    -0.44733    
O65      O      0.779630000000     0.833920000000     0.477790000000    -0.444441   
O66      O      0.899870000000     0.840840000000     0.477740000000    -0.447905   
O67      O      0.843920000000     0.777960000000     0.478340000000    -0.44785    
O68      O      0.836910000000     0.898090000000     0.477290000000    -0.445462   
O69      O      0.842050000000     0.899070000000     0.029360000000    -0.446258   
O70      O      0.835490000000     0.778880000000     0.030250000000    -0.442891   
O71      O      0.899480000000     0.836340000000     0.029850000000    -0.443981   
O72      O      0.779380000000     0.842970000000     0.029660000000    -0.445929   
O73      O      0.778720000000     0.845260000000     0.231250000000    -0.447735   
O74      O      0.898820000000     0.837770000000     0.227630000000    -0.444686   
O75      O      0.834360000000     0.780880000000     0.227630000000    -0.444666   
O76      O      0.841990000000     0.900830000000     0.231390000000    -0.449022   
O77      O      0.837910000000     0.898030000000     0.283460000000    -0.443941   
O78      O      0.845780000000     0.777920000000     0.279180000000    -0.446991   
O79      O      0.901170000000     0.841370000000     0.279740000000    -0.448739   
O80      O      0.781180000000     0.833370000000     0.282750000000    -0.444629   
O81      O      0.780840000000     0.178070000000     0.028340000000    -0.445489   
O82      O      0.900490000000     0.170260000000     0.026420000000    -0.449654   
O83      O      0.845210000000     0.233630000000     0.026410000000    -0.444317   
O84      O      0.837490000000     0.113460000000     0.028010000000    -0.44379    
O85      O      0.841640000000     0.112250000000     0.475900000000    -0.447735   
O86      O      0.835210000000     0.232350000000     0.474660000000    -0.444517   
O87      O      0.899440000000     0.174910000000     0.474330000000    -0.441443   
O88      O      0.778780000000     0.168430000000     0.476560000000    -0.444232   
O89      O      0.834450000000     0.232900000000     0.231830000000    -0.447399   
O90      O      0.842540000000     0.113240000000     0.233820000000    -0.451784   
O91      O      0.779060000000     0.168430000000     0.233890000000    -0.448264   
O92      O      0.899190000000     0.176340000000     0.232040000000    -0.446004   
O93      O      0.900590000000     0.172040000000     0.284150000000    -0.447627   
O94      O      0.780480000000     0.178650000000     0.285610000000    -0.444709   
O95      O      0.837830000000     0.114370000000     0.285900000000    -0.441624   
O96      O      0.844470000000     0.234960000000     0.283570000000    -0.444592   
O97      O      0.171340000000     0.233720000000     0.031530000000    -0.444686   
O98      O      0.173370000000     0.113530000000     0.031290000000    -0.447989   
O99      O      0.233050000000     0.173160000000     0.033380000000    -0.443716   
O100     O      0.112870000000     0.172840000000     0.029220000000    -0.447877   
O101     O      0.115770000000     0.174170000000     0.477060000000    -0.444901   
O102     O      0.236080000000     0.175340000000     0.481120000000    -0.448005   
O103     O      0.176220000000     0.113870000000     0.479120000000    -0.445443   
O104     O      0.176890000000     0.234310000000     0.479350000000    -0.447346   
O105     O      0.178760000000     0.233430000000     0.282460000000    -0.445063   
O106     O      0.172100000000     0.113250000000     0.281120000000    -0.448305   
O107     O      0.234810000000     0.169300000000     0.281170000000    -0.448512   
O108     O      0.114730000000     0.176050000000     0.282340000000    -0.446151   
O109     O      0.113670000000     0.171830000000     0.230230000000    -0.447998   
O110     O      0.233890000000     0.178790000000     0.229360000000    -0.444585   
O111     O      0.176640000000     0.114580000000     0.229020000000    -0.44548    
O112     O      0.169610000000     0.234700000000     0.230620000000    -0.447852   
O113     O      0.233200000000     0.834730000000     0.032430000000    -0.444041   
O114     O      0.113280000000     0.841930000000     0.030630000000    -0.447524   
O115     O      0.168940000000     0.778860000000     0.030940000000    -0.444618   
O116     O      0.176220000000     0.899150000000     0.031730000000    -0.44265    
O117     O      0.172100000000     0.899690000000     0.479610000000    -0.449307   
O118     O      0.178950000000     0.779710000000     0.479180000000    -0.446056   
O119     O      0.114680000000     0.836930000000     0.478570000000    -0.444529   
O120     O      0.235020000000     0.843800000000     0.480580000000    -0.4465     
O121     O      0.178920000000     0.779930000000     0.226240000000    -0.443928   
O122     O      0.172620000000     0.900170000000     0.227160000000    -0.447016   
O123     O      0.235340000000     0.843870000000     0.227780000000    -0.44552    
O124     O      0.114860000000     0.837480000000     0.225760000000    -0.442786   
O125     O      0.113810000000     0.842550000000     0.277820000000    -0.451224   
O126     O      0.233570000000     0.834260000000     0.279570000000    -0.446943   
O127     O      0.177070000000     0.899050000000     0.279260000000    -0.446654   
O128     O      0.168900000000     0.779030000000     0.278000000000    -0.448552   
O129     O      0.504970000000     0.872830000000     0.552920000000    -0.447842   
O130     O      0.508930000000     0.874990000000     0.963060000000    -0.441114   
O131     O      0.446870000000     0.874180000000     0.505850000000    -0.447087   
O132     O      0.567040000000     0.873600000000     0.010040000000    -0.447597   
O133     O      0.566670000000     0.804190000000     0.503420000000    -0.445646   
O134     O      0.446620000000     0.804560000000     0.011150000000    -0.446059   
O135     O      0.502410000000     0.805440000000     0.962520000000    -0.441576   
O136     O      0.510890000000     0.803230000000     0.552230000000    -0.445865   
O137     O      0.507810000000     0.872760000000     0.712220000000    -0.451189   
O138     O      0.506250000000     0.875220000000     0.802110000000    -0.445323   
O139     O      0.567170000000     0.874230000000     0.756910000000    -0.448032   
O140     O      0.446920000000     0.873820000000     0.755620000000    -0.447935   
O141     O      0.447050000000     0.803910000000     0.758360000000    -0.44663    
O142     O      0.567470000000     0.804370000000     0.760160000000    -0.446249   
O143     O      0.506000000000     0.805370000000     0.803260000000    -0.450637   
O144     O      0.508500000000     0.802920000000     0.713350000000    -0.444337   
O145     O      0.876290000000     0.507540000000     0.546310000000    -0.446873   
O146     O      0.874100000000     0.504080000000     0.956430000000    -0.441425   
O147     O      0.875020000000     0.565880000000     0.499460000000    -0.447187   
O148     O      0.875350000000     0.445710000000     0.003270000000    -0.442904   
O149     O      0.805730000000     0.445630000000     0.498010000000    -0.445415   
O150     O      0.805600000000     0.565660000000     0.006100000000    -0.442402   
O151     O      0.804500000000     0.510130000000     0.957160000000    -0.439589   
O152     O      0.806720000000     0.501190000000     0.546850000000    -0.447192   
O153     O      0.876430000000     0.505380000000     0.707290000000    -0.445285   
O154     O      0.873970000000     0.507460000000     0.797180000000    -0.451047   
O155     O      0.874920000000     0.446320000000     0.754030000000    -0.447382   
O156     O      0.875510000000     0.566580000000     0.752340000000    -0.447773   
O157     O      0.805650000000     0.566960000000     0.749070000000    -0.446209   
O158     O      0.805000000000     0.446570000000     0.751280000000    -0.446541   
O159     O      0.804120000000     0.508250000000     0.796050000000    -0.44421    
O160     O      0.806580000000     0.505230000000     0.706140000000    -0.450592   
O161     O      0.511020000000     0.139250000000     0.553350000000    -0.447024   
O162     O      0.502580000000     0.139270000000     0.963640000000    -0.440697   
O163     O      0.566820000000     0.138850000000     0.504610000000    -0.445524   
O164     O      0.446760000000     0.139830000000     0.012400000000    -0.445751   
O165     O      0.447300000000     0.209380000000     0.506590000000    -0.446915   
O166     O      0.567520000000     0.208410000000     0.010310000000    -0.44723    
O167     O      0.508970000000     0.208840000000     0.963500000000    -0.440961   
O168     O      0.505820000000     0.208920000000     0.553440000000    -0.446765   
O169     O      0.505630000000     0.138970000000     0.713490000000    -0.44737    
O170     O      0.508280000000     0.138930000000     0.803430000000    -0.446792   
O171     O      0.446880000000     0.139080000000     0.760070000000    -0.447607   
O172     O      0.567040000000     0.138780000000     0.756800000000    -0.447543   
O173     O      0.567170000000     0.208350000000     0.762400000000    -0.445481   
O174     O      0.447100000000     0.208660000000     0.754460000000    -0.445258   
O175     O      0.502840000000     0.208580000000     0.803320000000    -0.446539   
O176     O      0.511440000000     0.208590000000     0.713610000000    -0.446781   
O177     O      0.140140000000     0.506880000000     0.550400000000    -0.451163   
O178     O      0.137630000000     0.506230000000     0.960500000000    -0.439058   
O179     O      0.138960000000     0.446380000000     0.506690000000    -0.447137   
O180     O      0.138770000000     0.566700000000     0.006120000000    -0.448024   
O181     O      0.208710000000     0.566810000000     0.503460000000    -0.447222   
O182     O      0.208830000000     0.446500000000     0.003230000000    -0.448799   
O183     O      0.207480000000     0.506950000000     0.959330000000    -0.445282   
O184     O      0.209990000000     0.506360000000     0.549250000000    -0.444666   
O185     O      0.137770000000     0.504710000000     0.799470000000    -0.446864   
O186     O      0.139990000000     0.508800000000     0.709620000000    -0.448183   
O187     O      0.138990000000     0.446680000000     0.752440000000    -0.447193   
O188     O      0.138790000000     0.566840000000     0.756590000000    -0.44706    
O189     O      0.208420000000     0.566840000000     0.751330000000    -0.445412   
O190     O      0.208410000000     0.446790000000     0.759060000000    -0.445521   
O191     O      0.209570000000     0.502670000000     0.710320000000    -0.445986   
O192     O      0.207340000000     0.510990000000     0.800040000000    -0.447236   
O193     O      0.779630000000     0.833920000000     0.977800000000    -0.437971   
O194     O      0.899870000000     0.840840000000     0.977740000000    -0.441532   
O195     O      0.843920000000     0.777960000000     0.978340000000    -0.441408   
O196     O      0.836910000000     0.898090000000     0.977290000000    -0.438975   
O197     O      0.842050000000     0.899070000000     0.529360000000    -0.44857    
O198     O      0.835490000000     0.778880000000     0.530250000000    -0.445104   
O199     O      0.899480000000     0.836350000000     0.529850000000    -0.446197   
O200     O      0.779380000000     0.842970000000     0.529650000000    -0.448374   
O201     O      0.778720000000     0.845260000000     0.731250000000    -0.447738   
O202     O      0.898820000000     0.837770000000     0.727630000000    -0.444684   
O203     O      0.834360000000     0.780880000000     0.727630000000    -0.444671   
O204     O      0.841990000000     0.900830000000     0.731390000000    -0.449028   
O205     O      0.837910000000     0.898030000000     0.783460000000    -0.443906   
O206     O      0.845780000000     0.777920000000     0.779180000000    -0.446958   
O207     O      0.901170000000     0.841370000000     0.779740000000    -0.448713   
O208     O      0.781180000000     0.833370000000     0.782750000000    -0.444549   
O209     O      0.780840000000     0.178070000000     0.528340000000    -0.447799   
O210     O      0.900490000000     0.170260000000     0.526410000000    -0.452246   
O211     O      0.845210000000     0.233630000000     0.526410000000    -0.448046   
O212     O      0.837490000000     0.113460000000     0.528010000000    -0.446101   
O213     O      0.841640000000     0.112250000000     0.975900000000    -0.441272   
O214     O      0.835210000000     0.232350000000     0.974660000000    -0.436585   
O215     O      0.899440000000     0.174910000000     0.974330000000    -0.434814   
O216     O      0.778780000000     0.168430000000     0.976560000000    -0.43774    
O217     O      0.834450000000     0.232900000000     0.731830000000    -0.447483   
O218     O      0.842540000000     0.113240000000     0.733820000000    -0.4517     
O219     O      0.779060000000     0.168430000000     0.733890000000    -0.448352   
O220     O      0.899190000000     0.176340000000     0.732040000000    -0.446119   
O221     O      0.900590000000     0.172040000000     0.784150000000    -0.447478   
O222     O      0.780480000000     0.178650000000     0.785610000000    -0.444541   
O223     O      0.837830000000     0.114370000000     0.785900000000    -0.441565   
O224     O      0.844470000000     0.234960000000     0.783570000000    -0.444534   
O225     O      0.171340000000     0.233720000000     0.531520000000    -0.447065   
O226     O      0.173370000000     0.113530000000     0.531290000000    -0.450302   
O227     O      0.233050000000     0.173160000000     0.533380000000    -0.445901   
O228     O      0.112870000000     0.172840000000     0.529220000000    -0.450114   
O229     O      0.115770000000     0.174170000000     0.977070000000    -0.438623   
O230     O      0.236080000000     0.175340000000     0.981120000000    -0.441587   
O231     O      0.176220000000     0.113870000000     0.979120000000    -0.43899    
O232     O      0.176890000000     0.234310000000     0.979350000000    -0.44087    
O233     O      0.178760000000     0.233430000000     0.782460000000    -0.445001   
O234     O      0.172100000000     0.113250000000     0.781120000000    -0.448276   
O235     O      0.234810000000     0.169300000000     0.781170000000    -0.448464   
O236     O      0.114730000000     0.176050000000     0.782340000000    -0.446109   
O237     O      0.113670000000     0.171830000000     0.730230000000    -0.448001   
O238     O      0.233890000000     0.178790000000     0.729360000000    -0.444568   
O239     O      0.176640000000     0.114580000000     0.729020000000    -0.445481   
O240     O      0.169610000000     0.234700000000     0.730620000000    -0.447836   
O241     O      0.233200000000     0.834730000000     0.532430000000    -0.44624    
O242     O      0.113280000000     0.841930000000     0.530630000000    -0.449884   
O243     O      0.168940000000     0.778860000000     0.530940000000    -0.446966   
O244     O      0.176220000000     0.899150000000     0.531730000000    -0.444871   
O245     O      0.172100000000     0.899690000000     0.979610000000    -0.442915   
O246     O      0.178950000000     0.779710000000     0.979180000000    -0.439462   
O247     O      0.114680000000     0.836930000000     0.978570000000    -0.438016   
O248     O      0.235020000000     0.843800000000     0.980590000000    -0.440193   
O249     O      0.178920000000     0.779930000000     0.726240000000    -0.443983   
O250     O      0.172620000000     0.900170000000     0.727160000000    -0.44702    
O251     O      0.235340000000     0.843870000000     0.727780000000    -0.445508   
O252     O      0.114860000000     0.837480000000     0.725760000000    -0.442789   
O253     O      0.113810000000     0.842550000000     0.777820000000    -0.451202   
O254     O      0.233570000000     0.834260000000     0.779570000000    -0.446894   
O255     O      0.177070000000     0.899050000000     0.779260000000    -0.446634   
O256     O      0.168900000000     0.779030000000     0.777990000000    -0.448669   


