data_structure

_audit_creation_method RASPA-1.0
_audit_creation_date 2023-5-19
_audit_author_name 'Poobodin Mano'

_cell_length_a    42.4324
_cell_length_b    42.4193
_cell_length_c    42.394
_cell_angle_alpha 90
_cell_angle_beta  90
_cell_angle_gamma 90
_cell_volume      76307.2

_symmetry_cell_setting          triclinic
_symmetry_space_group_name_Hall 'P 1'
_symmetry_space_group_name_H-M  'P 1'
_symmetry_Int_Tables_number     1

_symmetry_equiv_pos_as_xyz 'x,y,z'

loop_
_atom_site_label
_atom_site_type_symbol
_atom_site_fract_x
_atom_site_fract_y
_atom_site_fract_z
_atom_site_charge
C1       C      0.491450000000     0.055610000000     0.242900000000     0.431606   
C2       C      0.992410000000     0.435470000000     0.240950000000     0.432982   
C3       C      0.431620000000     0.994720000000     0.242390000000     0.433417   
C4       C      0.051700000000     0.995850000000     0.241310000000     0.431355   
C5       C      0.494510000000     0.185570000000     0.245270000000     0.445465   
C6       C      0.494900000000     0.305580000000     0.240680000000     0.446648   
C7       C      0.994100000000     0.247460000000     0.303160000000     0.432543   
C8       C      0.995670000000     0.244360000000     0.183100000000     0.432608   
C9       C      0.301620000000     0.993320000000     0.242970000000     0.446736   
C10      C      0.181580000000     0.993930000000     0.241220000000     0.439683   
C11      C      0.242980000000     0.493450000000     0.181340000000     0.445676   
C12      C      0.240210000000     0.493170000000     0.301450000000     0.447686   
C13      C      0.236440000000     0.051130000000     0.492650000000     0.433124   
C14      C      0.238230000000     0.431130000000     0.990350000000     0.43846    
C15      C      0.236030000000     0.992000000000     0.431350000000     0.445176   
C16      C      0.238810000000     0.990460000000     0.051440000000     0.43253    
C17      C      0.996520000000     0.247470000000     0.053190000000     0.438359   
C18      C      0.493900000000     0.248560000000     0.433140000000     0.44736    
C19      C      0.055320000000     0.246730000000     0.992370000000     0.438951   
C20      C      0.435340000000     0.249520000000     0.993490000000     0.440616   
C21      C      0.243730000000     0.180950000000     0.491640000000     0.444092   
C22      C      0.243210000000     0.301250000000     0.491210000000     0.446446   
C23      C      0.185110000000     0.241470000000     0.990080000000     0.441665   
C24      C      0.305390000000     0.243600000000     0.992240000000     0.438596   
C25      C      0.385500000000     0.272760000000     0.506090000000     0.0390664  
C26      C      0.388110000000     0.225030000000     0.477700000000     0.0141144  
C27      C      0.352490000000     0.270280000000     0.506990000000     0.0441186  
C28      C      0.355440000000     0.223220000000     0.477320000000     0.146022   
C29      C      0.103370000000     0.223930000000     0.009280000000     0.0448143  
C30      C      0.103990000000     0.266420000000     0.473370000000     0.0159661  
C31      C      0.136240000000     0.223500000000     0.009360000000     0.0477738  
C32      C      0.136840000000     0.263940000000     0.470820000000     0.144476   
C33      C      0.260070000000     0.383100000000     0.971990000000     0.0404208  
C34      C      0.218340000000     0.382330000000     0.008730000000     0.0205026  
C35      C      0.260050000000     0.350230000000     0.971240000000     0.0440641  
C36      C      0.219790000000     0.349310000000     0.010030000000     0.146136   
C37      C      0.213450000000     0.101000000000     0.480020000000     0.033492   
C38      C      0.261740000000     0.098300000000     0.007460000000     0.0118986  
C39      C      0.216330000000     0.133930000000     0.478380000000     0.0427075  
C40      C      0.263950000000     0.130980000000     0.007140000000     0.146328   
C41      C      0.254550000000     0.015150000000     0.350830000000     0.0474762  
C42      C      0.221130000000     0.470710000000     0.348970000000     0.0211122  
C43      C      0.254160000000     0.013970000000     0.383700000000     0.0480783  
C44      C      0.218270000000     0.471250000000     0.381910000000     0.141242   
C45      C      0.218870000000     0.508550000000     0.100490000000     0.0350372  
C46      C      0.262920000000     0.974620000000     0.099310000000     0.0116631  
C47      C      0.221500000000     0.510800000000     0.133230000000     0.040432   
C48      C      0.264330000000     0.974890000000     0.132390000000     0.136556   
C49      C      0.015260000000     0.230870000000     0.352100000000     0.0455238  
C50      C      0.471750000000     0.265500000000     0.351170000000     0.0153543  
C51      C      0.013890000000     0.230010000000     0.384930000000     0.048725   
C52      C      0.471670000000     0.266630000000     0.384290000000     0.139179   
C53      C      0.474310000000     0.228760000000     0.133830000000     0.0383707  
C54      C      0.518560000000     0.262430000000     0.135460000000     0.0169835  
C55      C      0.475760000000     0.228550000000     0.100970000000     0.04156    
C56      C      0.518820000000     0.264170000000     0.102410000000     0.139013   
C57      C      0.100130000000     0.478260000000     0.219510000000     0.0342423  
C58      C      0.100150000000     0.012350000000     0.263490000000     0.0152988  
C59      C      0.132960000000     0.476430000000     0.220930000000     0.0406704  
C60      C      0.133200000000     0.012490000000     0.263660000000     0.140126   
C61      C      0.382570000000     0.011170000000     0.221220000000     0.041369   
C62      C      0.383680000000     0.476550000000     0.264770000000     0.0134804  
C63      C      0.349740000000     0.011930000000     0.222710000000     0.0507202  
C64      C      0.350580000000     0.475380000000     0.265010000000     0.14056    
C65      C      0.010680000000     0.387020000000     0.262010000000     0.0411132  
C66      C      0.476740000000     0.387010000000     0.217930000000     0.0127505  
C67      C      0.012620000000     0.354220000000     0.260530000000     0.046482   
C68      C      0.476760000000     0.353920000000     0.217630000000     0.139387   
C69      C      0.009560000000     0.104370000000     0.222310000000     0.0394731  
C70      C      0.475700000000     0.103830000000     0.266450000000     0.0115399  
C71      C      0.011770000000     0.137150000000     0.224440000000     0.044895   
C72      C      0.475940000000     0.136930000000     0.267350000000     0.136873   
C73      C      0.491450000000     0.055610000000     0.742900000000     0.431612   
C74      C      0.992410000000     0.435470000000     0.740950000000     0.432994   
C75      C      0.431620000000     0.994720000000     0.742390000000     0.433426   
C76      C      0.051700000000     0.995850000000     0.741310000000     0.431364   
C77      C      0.494510000000     0.185570000000     0.745270000000     0.445452   
C78      C      0.494900000000     0.305580000000     0.740680000000     0.446642   
C79      C      0.994100000000     0.247460000000     0.803160000000     0.432606   
C80      C      0.995670000000     0.244360000000     0.683100000000     0.432566   
C81      C      0.301620000000     0.993320000000     0.742970000000     0.446728   
C82      C      0.181580000000     0.993930000000     0.741220000000     0.439659   
C83      C      0.242980000000     0.493450000000     0.681340000000     0.445649   
C84      C      0.240210000000     0.493170000000     0.801450000000     0.447694   
C85      C      0.236440000000     0.051130000000     0.992650000000     0.43241    
C86      C      0.238230000000     0.431130000000     0.490350000000     0.439156   
C87      C      0.236030000000     0.992000000000     0.931350000000     0.444867   
C88      C      0.238810000000     0.990460000000     0.551450000000     0.433062   
C89      C      0.996520000000     0.247470000000     0.553190000000     0.439061   
C90      C      0.493900000000     0.248560000000     0.933140000000     0.447071   
C91      C      0.055320000000     0.246730000000     0.492370000000     0.439726   
C92      C      0.435340000000     0.249520000000     0.493490000000     0.4413     
C93      C      0.243730000000     0.180950000000     0.991640000000     0.438555   
C94      C      0.243210000000     0.301250000000     0.991210000000     0.440745   
C95      C      0.185110000000     0.241470000000     0.490080000000     0.447391   
C96      C      0.305390000000     0.243600000000     0.492240000000     0.444118   
C97      C      0.385500000000     0.272760000000     0.006100000000     0.0429381  
C98      C      0.388110000000     0.225030000000     0.977700000000     0.0135503  
C99      C      0.352490000000     0.270280000000     0.006990000000     0.0475417  
C100     C      0.355440000000     0.223220000000     0.977320000000     0.145223   
C101     C      0.103370000000     0.223930000000     0.509270000000     0.0410621  
C102     C      0.103990000000     0.266420000000     0.973370000000     0.0153282  
C103     C      0.136240000000     0.223500000000     0.509360000000     0.0444769  
C104     C      0.136840000000     0.263940000000     0.970820000000     0.143476   
C105     C      0.260070000000     0.383100000000     0.471990000000     0.0410307  
C106     C      0.218340000000     0.382330000000     0.508730000000     0.0165499  
C107     C      0.260050000000     0.350230000000     0.471240000000     0.0449645  
C108     C      0.219790000000     0.349310000000     0.510020000000     0.143102   
C109     C      0.213450000000     0.101000000000     0.980020000000     0.0328398  
C110     C      0.261740000000     0.098300000000     0.507470000000     0.00781911 
C111     C      0.216330000000     0.133930000000     0.978380000000     0.0417413  
C112     C      0.263950000000     0.130980000000     0.507130000000     0.143354   
C113     C      0.254550000000     0.015150000000     0.850830000000     0.0474611  
C114     C      0.221130000000     0.470710000000     0.848970000000     0.0211186  
C115     C      0.254160000000     0.013970000000     0.883700000000     0.0480227  
C116     C      0.218270000000     0.471250000000     0.881910000000     0.141172   
C117     C      0.218870000000     0.508550000000     0.600490000000     0.0348826  
C118     C      0.262920000000     0.974620000000     0.599310000000     0.0115729  
C119     C      0.221500000000     0.510800000000     0.633230000000     0.0402768  
C120     C      0.264330000000     0.974890000000     0.632400000000     0.136406   
C121     C      0.015260000000     0.230870000000     0.852100000000     0.0455055  
C122     C      0.471750000000     0.265500000000     0.851170000000     0.0153644  
C123     C      0.013890000000     0.230010000000     0.884930000000     0.0486658  
C124     C      0.471670000000     0.266630000000     0.884290000000     0.139099   
C125     C      0.474310000000     0.228760000000     0.633830000000     0.0382231  
C126     C      0.518560000000     0.262430000000     0.635460000000     0.0169462  
C127     C      0.475760000000     0.228550000000     0.600970000000     0.041391   
C128     C      0.518820000000     0.264170000000     0.602410000000     0.13877    
C129     C      0.100130000000     0.478260000000     0.719510000000     0.0342405  
C130     C      0.100150000000     0.012350000000     0.763490000000     0.0152969  
C131     C      0.132960000000     0.476430000000     0.720920000000     0.0405396  
C132     C      0.133200000000     0.012490000000     0.763660000000     0.140099   
C133     C      0.382570000000     0.011170000000     0.721220000000     0.0413354  
C134     C      0.383680000000     0.476550000000     0.764770000000     0.0134625  
C135     C      0.349740000000     0.011930000000     0.722710000000     0.0506966  
C136     C      0.350580000000     0.475380000000     0.765010000000     0.140531   
C137     C      0.010680000000     0.387020000000     0.762010000000     0.0411003  
C138     C      0.476740000000     0.387010000000     0.717930000000     0.0127293  
C139     C      0.012620000000     0.354220000000     0.760530000000     0.0464649  
C140     C      0.476760000000     0.353920000000     0.717630000000     0.139332   
C141     C      0.009560000000     0.104370000000     0.722310000000     0.0394298  
C142     C      0.475700000000     0.103830000000     0.766450000000     0.0115184  
C143     C      0.011770000000     0.137150000000     0.724440000000     0.0448542  
C144     C      0.475940000000     0.136930000000     0.767350000000     0.136836   
C145     C      0.491450000000     0.555610000000     0.242900000000     0.432207   
C146     C      0.992410000000     0.935470000000     0.240950000000     0.432741   
C147     C      0.431620000000     0.494720000000     0.242390000000     0.434165   
C148     C      0.051700000000     0.495850000000     0.241310000000     0.432068   
C149     C      0.494510000000     0.685570000000     0.245270000000     0.445437   
C150     C      0.494900000000     0.805580000000     0.240680000000     0.446651   
C151     C      0.994100000000     0.747460000000     0.303160000000     0.432533   
C152     C      0.995670000000     0.744360000000     0.183100000000     0.432586   
C153     C      0.301620000000     0.493320000000     0.242970000000     0.452143   
C154     C      0.181580000000     0.493930000000     0.241220000000     0.445312   
C155     C      0.242980000000     0.993450000000     0.181340000000     0.440196   
C156     C      0.240210000000     0.993170000000     0.301450000000     0.442099   
C157     C      0.236440000000     0.551130000000     0.492650000000     0.433759   
C158     C      0.238230000000     0.931130000000     0.990350000000     0.438199   
C159     C      0.236030000000     0.492000000000     0.431350000000     0.445884   
C160     C      0.238810000000     0.490460000000     0.051440000000     0.433247   
C161     C      0.996520000000     0.747470000000     0.053190000000     0.438097   
C162     C      0.493900000000     0.748560000000     0.433140000000     0.447366   
C163     C      0.055320000000     0.746740000000     0.992370000000     0.438694   
C164     C      0.435340000000     0.749520000000     0.993490000000     0.440618   
C165     C      0.243730000000     0.680940000000     0.491640000000     0.443998   
C166     C      0.243210000000     0.801250000000     0.491210000000     0.446454   
C167     C      0.185110000000     0.741460000000     0.990080000000     0.441688   
C168     C      0.305390000000     0.743600000000     0.992240000000     0.438525   
C169     C      0.385500000000     0.772760000000     0.506090000000     0.0390382  
C170     C      0.388110000000     0.725030000000     0.477700000000     0.014055   
C171     C      0.352490000000     0.770280000000     0.506990000000     0.0441139  
C172     C      0.355440000000     0.723220000000     0.477320000000     0.145993   
C173     C      0.103370000000     0.723930000000     0.009280000000     0.0447818  
C174     C      0.103990000000     0.766420000000     0.473370000000     0.0159243  
C175     C      0.136240000000     0.723500000000     0.009360000000     0.0477328  
C176     C      0.136840000000     0.763940000000     0.470820000000     0.144471   
C177     C      0.260070000000     0.883110000000     0.971990000000     0.0404142  
C178     C      0.218340000000     0.882330000000     0.008730000000     0.0205123  
C179     C      0.260050000000     0.850230000000     0.971240000000     0.0440497  
C180     C      0.219790000000     0.849300000000     0.010030000000     0.146149   
C181     C      0.213450000000     0.601000000000     0.480020000000     0.0333164  
C182     C      0.261740000000     0.598300000000     0.007460000000     0.0117738  
C183     C      0.216330000000     0.633930000000     0.478380000000     0.0425713  
C184     C      0.263950000000     0.630980000000     0.007140000000     0.146167   
C185     C      0.254550000000     0.515150000000     0.350830000000     0.0443322  
C186     C      0.221130000000     0.970700000000     0.348970000000     0.0201805  
C187     C      0.254160000000     0.513970000000     0.383700000000     0.0442454  
C188     C      0.218270000000     0.971250000000     0.381910000000     0.140628   
C189     C      0.218870000000     0.008550000000     0.100490000000     0.0388916  
C190     C      0.262920000000     0.474610000000     0.099310000000     0.01218    
C191     C      0.221500000000     0.010800000000     0.133230000000     0.0436422  
C192     C      0.264330000000     0.474890000000     0.132390000000     0.137411   
C193     C      0.015260000000     0.730870000000     0.352100000000     0.0455048  
C194     C      0.471750000000     0.765500000000     0.351170000000     0.0153415  
C195     C      0.013890000000     0.730010000000     0.384930000000     0.0486865  
C196     C      0.471670000000     0.766630000000     0.384290000000     0.139138   
C197     C      0.474310000000     0.728760000000     0.133830000000     0.0383326  
C198     C      0.518560000000     0.762430000000     0.135460000000     0.016968   
C199     C      0.475760000000     0.728550000000     0.100970000000     0.0414921  
C200     C      0.518820000000     0.764170000000     0.102410000000     0.138962   
C201     C      0.100130000000     0.978260000000     0.219510000000     0.0336067  
C202     C      0.100150000000     0.512350000000     0.263490000000     0.0115033  
C203     C      0.132960000000     0.976430000000     0.220930000000     0.0397584  
C204     C      0.133200000000     0.512490000000     0.263660000000     0.137164   
C205     C      0.382570000000     0.511170000000     0.221220000000     0.0375183  
C206     C      0.383680000000     0.976550000000     0.264770000000     0.0129067  
C207     C      0.349740000000     0.511930000000     0.222710000000     0.0473887  
C208     C      0.350580000000     0.975380000000     0.265010000000     0.139745   
C209     C      0.010680000000     0.887020000000     0.262010000000     0.0410646  
C210     C      0.476740000000     0.887010000000     0.217930000000     0.012717   
C211     C      0.012620000000     0.854220000000     0.260530000000     0.0464548  
C212     C      0.476760000000     0.853920000000     0.217630000000     0.13935    
C213     C      0.009560000000     0.604370000000     0.222310000000     0.0393291  
C214     C      0.475700000000     0.603830000000     0.266450000000     0.0113798  
C215     C      0.011770000000     0.637150000000     0.224440000000     0.0447563  
C216     C      0.475940000000     0.636930000000     0.267350000000     0.1367     
C217     C      0.491450000000     0.555610000000     0.742900000000     0.432214   
C218     C      0.992410000000     0.935470000000     0.740950000000     0.432752   
C219     C      0.431620000000     0.494720000000     0.742390000000     0.434175   
C220     C      0.051700000000     0.495850000000     0.741310000000     0.432078   
C221     C      0.494510000000     0.685570000000     0.745270000000     0.445423   
C222     C      0.494900000000     0.805580000000     0.740680000000     0.446645   
C223     C      0.994100000000     0.747460000000     0.803160000000     0.432596   
C224     C      0.995670000000     0.744360000000     0.683100000000     0.432544   
C225     C      0.301620000000     0.493320000000     0.742970000000     0.452147   
C226     C      0.181580000000     0.493930000000     0.741220000000     0.445301   
C227     C      0.242980000000     0.993450000000     0.681340000000     0.440151   
C228     C      0.240210000000     0.993170000000     0.801450000000     0.442097   
C229     C      0.236440000000     0.551130000000     0.992650000000     0.433043   
C230     C      0.238230000000     0.931130000000     0.490350000000     0.438895   
C231     C      0.236030000000     0.492000000000     0.931350000000     0.445574   
C232     C      0.238810000000     0.490460000000     0.551450000000     0.433781   
C233     C      0.996520000000     0.747470000000     0.553190000000     0.438799   
C234     C      0.493900000000     0.748560000000     0.933140000000     0.447076   
C235     C      0.055320000000     0.746740000000     0.492370000000     0.439471   
C236     C      0.435340000000     0.749520000000     0.493490000000     0.441303   
C237     C      0.243730000000     0.680940000000     0.991640000000     0.438447   
C238     C      0.243210000000     0.801250000000     0.991210000000     0.440744   
C239     C      0.185110000000     0.741460000000     0.490080000000     0.44743    
C240     C      0.305390000000     0.743600000000     0.492240000000     0.444059   
C241     C      0.385500000000     0.772760000000     0.006100000000     0.0429202  
C242     C      0.388110000000     0.725030000000     0.977700000000     0.0134898  
C243     C      0.352490000000     0.770280000000     0.006990000000     0.0475457  
C244     C      0.355440000000     0.723220000000     0.977320000000     0.145192   
C245     C      0.103370000000     0.723930000000     0.509270000000     0.0410188  
C246     C      0.103990000000     0.766420000000     0.973370000000     0.0152853  
C247     C      0.136240000000     0.723500000000     0.509360000000     0.0444262  
C248     C      0.136840000000     0.763940000000     0.970820000000     0.14347    
C249     C      0.260070000000     0.883110000000     0.471990000000     0.041024   
C250     C      0.218340000000     0.882330000000     0.508730000000     0.0165556  
C251     C      0.260050000000     0.850230000000     0.471240000000     0.0449512  
C252     C      0.219790000000     0.849300000000     0.510020000000     0.143108   
C253     C      0.213450000000     0.601000000000     0.980020000000     0.0326624  
C254     C      0.261740000000     0.598300000000     0.507470000000     0.00767194 
C255     C      0.216330000000     0.633930000000     0.978380000000     0.0416015  
C256     C      0.263950000000     0.630980000000     0.507130000000     0.143181   
C257     C      0.254550000000     0.515150000000     0.850830000000     0.044311   
C258     C      0.221130000000     0.970700000000     0.848970000000     0.0201859  
C259     C      0.254160000000     0.513970000000     0.883700000000     0.0441862  
C260     C      0.218270000000     0.971250000000     0.881910000000     0.140558   
C261     C      0.218870000000     0.008550000000     0.600490000000     0.0387591  
C262     C      0.262920000000     0.474610000000     0.599310000000     0.0120921  
C263     C      0.221500000000     0.010800000000     0.633230000000     0.0434998  
C264     C      0.264330000000     0.474890000000     0.632400000000     0.137264   
C265     C      0.015260000000     0.730870000000     0.852100000000     0.0454864  
C266     C      0.471750000000     0.765500000000     0.851170000000     0.0153516  
C267     C      0.013890000000     0.730010000000     0.884930000000     0.0486271  
C268     C      0.471670000000     0.766630000000     0.884290000000     0.139058   
C269     C      0.474310000000     0.728760000000     0.633830000000     0.0381845  
C270     C      0.518560000000     0.762430000000     0.635460000000     0.0169305  
C271     C      0.475760000000     0.728550000000     0.600970000000     0.0413223  
C272     C      0.518820000000     0.764170000000     0.602410000000     0.138718   
C273     C      0.100130000000     0.978260000000     0.719510000000     0.0336037  
C274     C      0.100150000000     0.512350000000     0.763490000000     0.011491   
C275     C      0.132960000000     0.976430000000     0.720920000000     0.0396252  
C276     C      0.133200000000     0.512490000000     0.763660000000     0.137128   
C277     C      0.382570000000     0.511170000000     0.721220000000     0.0374734  
C278     C      0.383680000000     0.976550000000     0.764770000000     0.0128879  
C279     C      0.349740000000     0.511930000000     0.722710000000     0.0473554  
C280     C      0.350580000000     0.975380000000     0.765010000000     0.139715   
C281     C      0.010680000000     0.887020000000     0.762010000000     0.0410517  
C282     C      0.476740000000     0.887010000000     0.717930000000     0.0126957  
C283     C      0.012620000000     0.854220000000     0.760530000000     0.0464376  
C284     C      0.476760000000     0.853920000000     0.717630000000     0.139296   
C285     C      0.009560000000     0.604370000000     0.722310000000     0.0392851  
C286     C      0.475700000000     0.603830000000     0.766450000000     0.0113578  
C287     C      0.011770000000     0.637150000000     0.724440000000     0.044715   
C288     C      0.475940000000     0.636930000000     0.767350000000     0.136662   
C289     C      0.991450000000     0.055610000000     0.242900000000     0.430682   
C290     C      0.492410000000     0.435470000000     0.240950000000     0.433924   
C291     C      0.931620000000     0.994720000000     0.242390000000     0.433159   
C292     C      0.551700000000     0.995850000000     0.241310000000     0.432194   
C293     C      0.994510000000     0.185570000000     0.245270000000     0.438315   
C294     C      0.994900000000     0.305580000000     0.240680000000     0.439236   
C295     C      0.494100000000     0.247460000000     0.303160000000     0.439896   
C296     C      0.495670000000     0.244360000000     0.183100000000     0.439954   
C297     C      0.801620000000     0.993320000000     0.242970000000     0.446734   
C298     C      0.681580000000     0.993930000000     0.241220000000     0.439628   
C299     C      0.742980000000     0.493450000000     0.181340000000     0.445667   
C300     C      0.740210000000     0.493170000000     0.301450000000     0.447646   
C301     C      0.736440000000     0.051130000000     0.492650000000     0.433395   
C302     C      0.738230000000     0.431130000000     0.990350000000     0.438487   
C303     C      0.736030000000     0.992000000000     0.431350000000     0.445193   
C304     C      0.738810000000     0.990460000000     0.051440000000     0.432544   
C305     C      0.496520000000     0.247470000000     0.053190000000     0.446929   
C306     C      0.993900000000     0.248560000000     0.433140000000     0.446166   
C307     C      0.555320000000     0.246730000000     0.992370000000     0.44019    
C308     C      0.935340000000     0.249520000000     0.993490000000     0.439909   
C309     C      0.743740000000     0.180950000000     0.491640000000     0.444056   
C310     C      0.743200000000     0.301250000000     0.491210000000     0.446464   
C311     C      0.685110000000     0.241470000000     0.990080000000     0.441636   
C312     C      0.805390000000     0.243600000000     0.992240000000     0.438558   
C313     C      0.885500000000     0.272760000000     0.506090000000     0.0389809  
C314     C      0.888110000000     0.225030000000     0.477700000000     0.0140993  
C315     C      0.852490000000     0.270280000000     0.506990000000     0.044091   
C316     C      0.855430000000     0.223220000000     0.477320000000     0.146013   
C317     C      0.603370000000     0.223930000000     0.009280000000     0.0447249  
C318     C      0.603990000000     0.266420000000     0.473370000000     0.0159022  
C319     C      0.636240000000     0.223500000000     0.009360000000     0.0475998  
C320     C      0.636840000000     0.263940000000     0.470820000000     0.144263   
C321     C      0.760070000000     0.383100000000     0.971990000000     0.0403935  
C322     C      0.718340000000     0.382330000000     0.008730000000     0.0204882  
C323     C      0.760050000000     0.350230000000     0.971240000000     0.0440551  
C324     C      0.719790000000     0.349310000000     0.010030000000     0.14608    
C325     C      0.713450000000     0.101000000000     0.480020000000     0.0334329  
C326     C      0.761740000000     0.098300000000     0.007460000000     0.0118975  
C327     C      0.716330000000     0.133930000000     0.478380000000     0.0426461  
C328     C      0.763950000000     0.130980000000     0.007140000000     0.146274   
C329     C      0.754550000000     0.015150000000     0.350830000000     0.0474562  
C330     C      0.721130000000     0.470710000000     0.348970000000     0.0211047  
C331     C      0.754160000000     0.013970000000     0.383700000000     0.0480455  
C332     C      0.718270000000     0.471250000000     0.381910000000     0.141144   
C333     C      0.718870000000     0.508550000000     0.100490000000     0.0349726  
C334     C      0.762920000000     0.974620000000     0.099310000000     0.0116363  
C335     C      0.721500000000     0.510800000000     0.133230000000     0.0403722  
C336     C      0.764330000000     0.974890000000     0.132390000000     0.13651    
C337     C      0.515260000000     0.230870000000     0.352100000000     0.0410859  
C338     C      0.971750000000     0.265500000000     0.351170000000     0.0142942  
C339     C      0.513890000000     0.230010000000     0.384930000000     0.0435674  
C340     C      0.971670000000     0.266630000000     0.384290000000     0.138383   
C341     C      0.974310000000     0.228760000000     0.133830000000     0.0373155  
C342     C      0.018560000000     0.262430000000     0.135460000000     0.0216878  
C343     C      0.975770000000     0.228550000000     0.100970000000     0.0404989  
C344     C      0.018820000000     0.264170000000     0.102410000000     0.142994   
C345     C      0.600130000000     0.478260000000     0.219510000000     0.0340121  
C346     C      0.600150000000     0.012350000000     0.263490000000     0.0151384  
C347     C      0.632960000000     0.476430000000     0.220930000000     0.0404631  
C348     C      0.633200000000     0.012490000000     0.263660000000     0.139896   
C349     C      0.882570000000     0.011170000000     0.221220000000     0.0413044  
C350     C      0.883680000000     0.476550000000     0.264770000000     0.0134336  
C351     C      0.849740000000     0.011930000000     0.222710000000     0.0506926  
C352     C      0.850580000000     0.475380000000     0.265010000000     0.140509   
C353     C      0.510680000000     0.387020000000     0.262010000000     0.0359529  
C354     C      0.976740000000     0.387010000000     0.217930000000     0.0119478  
C355     C      0.512620000000     0.354220000000     0.260530000000     0.0420912  
C356     C      0.976770000000     0.353920000000     0.217630000000     0.13823    
C357     C      0.509560000000     0.104370000000     0.222310000000     0.0343503  
C358     C      0.975700000000     0.103830000000     0.266450000000     0.0107743  
C359     C      0.511770000000     0.137150000000     0.224440000000     0.0404416  
C360     C      0.975940000000     0.136930000000     0.267350000000     0.135675   
C361     C      0.991450000000     0.055610000000     0.742900000000     0.430688   
C362     C      0.492410000000     0.435470000000     0.740950000000     0.433936   
C363     C      0.931620000000     0.994720000000     0.742390000000     0.433168   
C364     C      0.551700000000     0.995850000000     0.741310000000     0.432203   
C365     C      0.994510000000     0.185570000000     0.745270000000     0.438295   
C366     C      0.994900000000     0.305580000000     0.740680000000     0.439224   
C367     C      0.494100000000     0.247460000000     0.803160000000     0.439962   
C368     C      0.495670000000     0.244360000000     0.683100000000     0.439923   
C369     C      0.801620000000     0.993320000000     0.742970000000     0.446726   
C370     C      0.681580000000     0.993930000000     0.741220000000     0.439604   
C371     C      0.742980000000     0.493450000000     0.681340000000     0.445639   
C372     C      0.740210000000     0.493170000000     0.801450000000     0.447654   
C373     C      0.736440000000     0.051130000000     0.992650000000     0.432679   
C374     C      0.738230000000     0.431130000000     0.490350000000     0.439183   
C375     C      0.736030000000     0.992000000000     0.931350000000     0.444883   
C376     C      0.738810000000     0.990460000000     0.551450000000     0.433077   
C377     C      0.496520000000     0.247470000000     0.553190000000     0.447667   
C378     C      0.993900000000     0.248560000000     0.933140000000     0.445881   
C379     C      0.555320000000     0.246730000000     0.492370000000     0.44097    
C380     C      0.935340000000     0.249520000000     0.493490000000     0.440591   
C381     C      0.743740000000     0.180950000000     0.991640000000     0.438513   
C382     C      0.743200000000     0.301250000000     0.991210000000     0.440757   
C383     C      0.685110000000     0.241470000000     0.490080000000     0.447373   
C384     C      0.805390000000     0.243600000000     0.492240000000     0.444082   
C385     C      0.885500000000     0.272760000000     0.006100000000     0.042853   
C386     C      0.888110000000     0.225030000000     0.977700000000     0.0135363  
C387     C      0.852490000000     0.270280000000     0.006990000000     0.0475166  
C388     C      0.855430000000     0.223220000000     0.977320000000     0.145214   
C389     C      0.603370000000     0.223930000000     0.509270000000     0.040956   
C390     C      0.603990000000     0.266420000000     0.973370000000     0.0152629  
C391     C      0.636240000000     0.223500000000     0.509360000000     0.0442935  
C392     C      0.636840000000     0.263940000000     0.970820000000     0.143261   
C393     C      0.760070000000     0.383100000000     0.471990000000     0.0410034  
C394     C      0.718340000000     0.382330000000     0.508730000000     0.0165281  
C395     C      0.760050000000     0.350230000000     0.471240000000     0.0449563  
C396     C      0.719790000000     0.349310000000     0.510020000000     0.14304    
C397     C      0.713450000000     0.101000000000     0.980020000000     0.0327803  
C398     C      0.761740000000     0.098300000000     0.507470000000     0.00781112 
C399     C      0.716330000000     0.133930000000     0.978380000000     0.0416788  
C400     C      0.763950000000     0.130980000000     0.507130000000     0.143295   
C401     C      0.754550000000     0.015150000000     0.850830000000     0.0474412  
C402     C      0.721130000000     0.470710000000     0.848970000000     0.0211112  
C403     C      0.754160000000     0.013970000000     0.883700000000     0.04799    
C404     C      0.718270000000     0.471250000000     0.881910000000     0.141075   
C405     C      0.718870000000     0.508550000000     0.600490000000     0.0348175  
C406     C      0.762920000000     0.974620000000     0.599310000000     0.0115458  
C407     C      0.721500000000     0.510800000000     0.633230000000     0.0402165  
C408     C      0.764330000000     0.974890000000     0.632400000000     0.13636    
C409     C      0.515260000000     0.230870000000     0.852100000000     0.0410661  
C410     C      0.971750000000     0.265500000000     0.851170000000     0.0143048  
C411     C      0.513890000000     0.230010000000     0.884930000000     0.0435126  
C412     C      0.971670000000     0.266630000000     0.884290000000     0.138304   
C413     C      0.974310000000     0.228760000000     0.633830000000     0.0371659  
C414     C      0.018560000000     0.262430000000     0.635460000000     0.0216617  
C415     C      0.975770000000     0.228550000000     0.600970000000     0.0403271  
C416     C      0.018820000000     0.264170000000     0.602410000000     0.142766   
C417     C      0.600130000000     0.478260000000     0.719510000000     0.0340098  
C418     C      0.600150000000     0.012350000000     0.763490000000     0.0151362  
C419     C      0.632960000000     0.476430000000     0.720920000000     0.0403318  
C420     C      0.633200000000     0.012490000000     0.763660000000     0.139868   
C421     C      0.882570000000     0.011170000000     0.721220000000     0.0412705  
C422     C      0.883680000000     0.476550000000     0.764770000000     0.0134158  
C423     C      0.849740000000     0.011930000000     0.722710000000     0.0506689  
C424     C      0.850580000000     0.475380000000     0.765010000000     0.14048    
C425     C      0.510680000000     0.387020000000     0.762010000000     0.0359337  
C426     C      0.976740000000     0.387010000000     0.717930000000     0.0119261  
C427     C      0.512620000000     0.354220000000     0.760530000000     0.0420685  
C428     C      0.976770000000     0.353920000000     0.717630000000     0.138174   
C429     C      0.509560000000     0.104370000000     0.722310000000     0.0342998  
C430     C      0.975700000000     0.103830000000     0.766450000000     0.0107525  
C431     C      0.511770000000     0.137150000000     0.724440000000     0.0403952  
C432     C      0.975940000000     0.136930000000     0.767350000000     0.135637   
C433     C      0.991450000000     0.555610000000     0.242900000000     0.431281   
C434     C      0.492410000000     0.935470000000     0.240950000000     0.433681   
C435     C      0.931620000000     0.494720000000     0.242390000000     0.433906   
C436     C      0.551700000000     0.495850000000     0.241310000000     0.432908   
C437     C      0.994510000000     0.685570000000     0.245270000000     0.438269   
C438     C      0.994900000000     0.805580000000     0.240680000000     0.43923    
C439     C      0.494100000000     0.747460000000     0.303160000000     0.439899   
C440     C      0.495670000000     0.744360000000     0.183100000000     0.439945   
C441     C      0.801620000000     0.493320000000     0.242970000000     0.45215    
C442     C      0.681580000000     0.493930000000     0.241220000000     0.445274   
C443     C      0.742980000000     0.993450000000     0.181340000000     0.440173   
C444     C      0.740210000000     0.993170000000     0.301450000000     0.442047   
C445     C      0.736440000000     0.551130000000     0.492650000000     0.434032   
C446     C      0.738230000000     0.931130000000     0.990350000000     0.438225   
C447     C      0.736030000000     0.492000000000     0.431350000000     0.445903   
C448     C      0.738810000000     0.490460000000     0.051440000000     0.433263   
C449     C      0.496520000000     0.747470000000     0.053190000000     0.446674   
C450     C      0.993900000000     0.748560000000     0.433140000000     0.446171   
C451     C      0.555320000000     0.746740000000     0.992370000000     0.439933   
C452     C      0.935340000000     0.749520000000     0.993490000000     0.439911   
C453     C      0.743740000000     0.680940000000     0.491640000000     0.443963   
C454     C      0.743200000000     0.801250000000     0.491210000000     0.446473   
C455     C      0.685110000000     0.741460000000     0.990080000000     0.44166    
C456     C      0.805390000000     0.743600000000     0.992240000000     0.438486   
C457     C      0.885500000000     0.772760000000     0.506090000000     0.0389527  
C458     C      0.888110000000     0.725030000000     0.477700000000     0.0140398  
C459     C      0.852490000000     0.770280000000     0.506990000000     0.0440864  
C460     C      0.855430000000     0.723220000000     0.477320000000     0.145984   
C461     C      0.603370000000     0.723930000000     0.009280000000     0.0446919  
C462     C      0.603990000000     0.766420000000     0.473370000000     0.01586    
C463     C      0.636240000000     0.723500000000     0.009360000000     0.0475582  
C464     C      0.636840000000     0.763940000000     0.470820000000     0.144258   
C465     C      0.760070000000     0.883110000000     0.971990000000     0.0403869  
C466     C      0.718340000000     0.882330000000     0.008730000000     0.0204977  
C467     C      0.760050000000     0.850230000000     0.971240000000     0.0440407  
C468     C      0.719790000000     0.849300000000     0.010030000000     0.146094   
C469     C      0.713450000000     0.601000000000     0.480020000000     0.0332566  
C470     C      0.761740000000     0.598300000000     0.007460000000     0.0117722  
C471     C      0.716330000000     0.633930000000     0.478380000000     0.0425092  
C472     C      0.763950000000     0.630980000000     0.007140000000     0.146112   
C473     C      0.754550000000     0.515150000000     0.350830000000     0.0443031  
C474     C      0.721130000000     0.970700000000     0.348970000000     0.0201708  
C475     C      0.754160000000     0.513970000000     0.383700000000     0.0442018  
C476     C      0.718270000000     0.971250000000     0.381910000000     0.140529   
C477     C      0.718870000000     0.008550000000     0.100490000000     0.0388388  
C478     C      0.762920000000     0.474610000000     0.099310000000     0.012154   
C479     C      0.721500000000     0.010800000000     0.133230000000     0.043592   
C480     C      0.764330000000     0.474890000000     0.132390000000     0.137367   
C481     C      0.515260000000     0.730870000000     0.352100000000     0.0410575  
C482     C      0.971750000000     0.765500000000     0.351170000000     0.0142798  
C483     C      0.513890000000     0.730010000000     0.384930000000     0.043518   
C484     C      0.971670000000     0.766630000000     0.384290000000     0.138341   
C485     C      0.974310000000     0.728760000000     0.133830000000     0.0372756  
C486     C      0.018560000000     0.762430000000     0.135460000000     0.0216815  
C487     C      0.975770000000     0.728550000000     0.100970000000     0.0404293  
C488     C      0.018820000000     0.764170000000     0.102410000000     0.142951   
C489     C      0.600130000000     0.978260000000     0.219510000000     0.0333749  
C490     C      0.600150000000     0.512350000000     0.263490000000     0.0113213  
C491     C      0.632960000000     0.976430000000     0.220930000000     0.039548   
C492     C      0.633200000000     0.512490000000     0.263660000000     0.136922   
C493     C      0.882570000000     0.511170000000     0.221220000000     0.0374508  
C494     C      0.883680000000     0.976550000000     0.264770000000     0.0128588  
C495     C      0.849740000000     0.511930000000     0.222710000000     0.0473541  
C496     C      0.850580000000     0.975380000000     0.265010000000     0.139694   
C497     C      0.510680000000     0.887020000000     0.262010000000     0.0359033  
C498     C      0.976740000000     0.887010000000     0.217930000000     0.0119145  
C499     C      0.512620000000     0.854220000000     0.260530000000     0.0420587  
C500     C      0.976770000000     0.853920000000     0.217630000000     0.138193   
C501     C      0.509560000000     0.604370000000     0.222310000000     0.0341821  
C502     C      0.975700000000     0.603830000000     0.266450000000     0.0106122  
C503     C      0.511770000000     0.637150000000     0.224440000000     0.0402896  
C504     C      0.975940000000     0.636930000000     0.267350000000     0.135498   
C505     C      0.991450000000     0.555610000000     0.742900000000     0.431288   
C506     C      0.492410000000     0.935470000000     0.740950000000     0.433693   
C507     C      0.931620000000     0.494720000000     0.742390000000     0.433916   
C508     C      0.551700000000     0.495850000000     0.741310000000     0.432919   
C509     C      0.994510000000     0.685570000000     0.745270000000     0.438249   
C510     C      0.994900000000     0.805580000000     0.740680000000     0.439218   
C511     C      0.494100000000     0.747460000000     0.803160000000     0.439965   
C512     C      0.495670000000     0.744360000000     0.683100000000     0.439913   
C513     C      0.801620000000     0.493320000000     0.742970000000     0.452155   
C514     C      0.681580000000     0.493930000000     0.741220000000     0.445263   
C515     C      0.742980000000     0.993450000000     0.681340000000     0.440129   
C516     C      0.740210000000     0.993170000000     0.801450000000     0.442044   
C517     C      0.736440000000     0.551130000000     0.992650000000     0.433316   
C518     C      0.738230000000     0.931130000000     0.490350000000     0.438921   
C519     C      0.736030000000     0.492000000000     0.931350000000     0.445592   
C520     C      0.738810000000     0.490460000000     0.551450000000     0.433797   
C521     C      0.496520000000     0.747470000000     0.553190000000     0.447412   
C522     C      0.993900000000     0.748560000000     0.933140000000     0.445885   
C523     C      0.555320000000     0.746740000000     0.492370000000     0.440715   
C524     C      0.935340000000     0.749520000000     0.493490000000     0.440593   
C525     C      0.743740000000     0.680940000000     0.991640000000     0.438405   
C526     C      0.743200000000     0.801250000000     0.991210000000     0.440755   
C527     C      0.685110000000     0.741460000000     0.490080000000     0.447411   
C528     C      0.805390000000     0.743600000000     0.492240000000     0.444023   
C529     C      0.885500000000     0.772760000000     0.006100000000     0.042835   
C530     C      0.888110000000     0.725030000000     0.977700000000     0.0134757  
C531     C      0.852490000000     0.770280000000     0.006990000000     0.0475206  
C532     C      0.855430000000     0.723220000000     0.977320000000     0.145183   
C533     C      0.603370000000     0.723930000000     0.509270000000     0.0409122  
C534     C      0.603990000000     0.766420000000     0.973370000000     0.0152197  
C535     C      0.636240000000     0.723500000000     0.509360000000     0.0442422  
C536     C      0.636840000000     0.763940000000     0.970820000000     0.143253   
C537     C      0.760070000000     0.883110000000     0.471990000000     0.0409967  
C538     C      0.718340000000     0.882330000000     0.508730000000     0.0165337  
C539     C      0.760050000000     0.850230000000     0.471240000000     0.044943   
C540     C      0.719790000000     0.849300000000     0.510020000000     0.143046   
C541     C      0.713450000000     0.601000000000     0.980020000000     0.0326023  
C542     C      0.761740000000     0.598300000000     0.507470000000     0.00766356 
C543     C      0.716330000000     0.633930000000     0.978380000000     0.0415383  
C544     C      0.763950000000     0.630980000000     0.507130000000     0.143122   
C545     C      0.754550000000     0.515150000000     0.850830000000     0.044282   
C546     C      0.721130000000     0.970700000000     0.848970000000     0.0201763  
C547     C      0.754160000000     0.513970000000     0.883700000000     0.0441426  
C548     C      0.718270000000     0.971250000000     0.881910000000     0.140459   
C549     C      0.718870000000     0.008550000000     0.600490000000     0.0387058  
C550     C      0.762920000000     0.474610000000     0.599310000000     0.0120658  
C551     C      0.721500000000     0.010800000000     0.633230000000     0.0434491  
C552     C      0.764330000000     0.474890000000     0.632400000000     0.137219   
C553     C      0.515260000000     0.730870000000     0.852100000000     0.0410378  
C554     C      0.971750000000     0.765500000000     0.851170000000     0.0142905  
C555     C      0.513890000000     0.730010000000     0.884930000000     0.043463   
C556     C      0.971670000000     0.766630000000     0.884290000000     0.138262   
C557     C      0.974310000000     0.728760000000     0.633830000000     0.0371255  
C558     C      0.018560000000     0.762430000000     0.635460000000     0.0216552  
C559     C      0.975770000000     0.728550000000     0.600970000000     0.0402567  
C560     C      0.018820000000     0.764170000000     0.602410000000     0.142723   
C561     C      0.600130000000     0.978260000000     0.719510000000     0.0333715  
C562     C      0.600150000000     0.512350000000     0.763490000000     0.0113087  
C563     C      0.632960000000     0.976430000000     0.720920000000     0.0394144  
C564     C      0.633200000000     0.512490000000     0.763660000000     0.136886   
C565     C      0.882570000000     0.511170000000     0.721220000000     0.0374058  
C566     C      0.883680000000     0.976550000000     0.764770000000     0.01284    
C567     C      0.849740000000     0.511930000000     0.722710000000     0.0473208  
C568     C      0.850580000000     0.975380000000     0.765010000000     0.139664   
C569     C      0.510680000000     0.887020000000     0.762010000000     0.035884   
C570     C      0.976740000000     0.887010000000     0.717930000000     0.0118926  
C571     C      0.512620000000     0.854220000000     0.760530000000     0.042036   
C572     C      0.976770000000     0.853920000000     0.717630000000     0.138137   
C573     C      0.509560000000     0.604370000000     0.722310000000     0.0341309  
C574     C      0.975700000000     0.603830000000     0.766450000000     0.0105899  
C575     C      0.511770000000     0.637150000000     0.724440000000     0.0402424  
C576     C      0.975940000000     0.636930000000     0.767350000000     0.135459   
H1       H      0.339030000000     0.288510000000     0.518830000000     0.04181    
H2       H      0.396630000000     0.292530000000     0.517870000000     0.0491641  
H3       H      0.401230000000     0.205810000000     0.467020000000     0.0707626  
H4       H      0.148080000000     0.206490000000     0.024370000000     0.042909   
H5       H      0.090950000000     0.207500000000     0.024440000000     0.048525   
H6       H      0.091840000000     0.283780000000     0.459020000000     0.068376   
H7       H      0.276920000000     0.338510000000     0.955990000000     0.046906   
H8       H      0.276440000000     0.395620000000     0.956840000000     0.0500939  
H9       H      0.201220000000     0.394490000000     0.023360000000     0.0699865  
H10      H      0.198020000000     0.147390000000     0.466650000000     0.039323   
H11      H      0.193330000000     0.089910000000     0.468820000000     0.0471137  
H12      H      0.280990000000     0.085110000000     0.017980000000     0.0676022  
H13      H      0.267980000000     0.031200000000     0.396610000000     0.0457481  
H14      H      0.268910000000     0.032980000000     0.339440000000     0.0508789  
H15      H      0.208040000000     0.453040000000     0.335880000000     0.0714677  
H16      H      0.204590000000     0.525340000000     0.145780000000     0.0409394  
H17      H      0.200630000000     0.522120000000     0.088780000000     0.0445444  
H18      H      0.280090000000     0.960740000000     0.086380000000     0.0679281  
H19      H      0.030980000000     0.215580000000     0.397370000000     0.0440664  
H20      H      0.032820000000     0.216500000000     0.340300000000     0.050085   
H21      H      0.454360000000     0.279160000000     0.338320000000     0.0692554  
H22      H      0.458400000000     0.214770000000     0.088190000000     0.0438949  
H23      H      0.456360000000     0.214650000000     0.145350000000     0.0462836  
H24      H      0.536180000000     0.275560000000     0.148560000000     0.0708104  
H25      H      0.145060000000     0.461920000000     0.203670000000     0.0427538  
H26      H      0.087910000000     0.464490000000     0.201750000000     0.0460946  
H27      H      0.087730000000     0.026160000000     0.281090000000     0.0681997  
H28      H      0.337230000000     0.026320000000     0.205640000000     0.0486963  
H29      H      0.394270000000     0.025520000000     0.203580000000     0.0473866  
H30      H      0.396580000000     0.462910000000     0.282150000000     0.0686133  
H31      H      0.027050000000     0.342160000000     0.277880000000     0.0441279  
H32      H      0.024320000000     0.399200000000     0.279900000000     0.047577   
H33      H      0.462940000000     0.399460000000     0.200330000000     0.069353   
H34      H      0.026290000000     0.149440000000     0.207320000000     0.0412684  
H35      H      0.023110000000     0.092420000000     0.204210000000     0.0449994  
H36      H      0.461860000000     0.091150000000     0.283850000000     0.0679149  
H37      H      0.339030000000     0.288510000000     0.018840000000     0.0422106  
H38      H      0.396630000000     0.292530000000     0.017870000000     0.0497101  
H39      H      0.401230000000     0.205810000000     0.967020000000     0.0705304  
H40      H      0.148080000000     0.206490000000     0.524370000000     0.0426559  
H41      H      0.090950000000     0.207500000000     0.524440000000     0.0481391  
H42      H      0.091840000000     0.283780000000     0.959020000000     0.0681867  
H43      H      0.276920000000     0.338510000000     0.455990000000     0.0470797  
H44      H      0.276440000000     0.395620000000     0.456840000000     0.0503142  
H45      H      0.201220000000     0.394490000000     0.523360000000     0.0696514  
H46      H      0.198020000000     0.147390000000     0.966650000000     0.0390428  
H47      H      0.193330000000     0.089910000000     0.968820000000     0.0467821  
H48      H      0.280990000000     0.085110000000     0.517980000000     0.0671172  
H49      H      0.267980000000     0.031200000000     0.896610000000     0.0456087  
H50      H      0.268910000000     0.032980000000     0.839440000000     0.050833   
H51      H      0.208040000000     0.453040000000     0.835880000000     0.0714475  
H52      H      0.204590000000     0.525340000000     0.645780000000     0.0407889  
H53      H      0.200630000000     0.522120000000     0.588780000000     0.0439932  
H54      H      0.280090000000     0.960740000000     0.586380000000     0.0674123  
H55      H      0.030980000000     0.215580000000     0.897370000000     0.0439315  
H56      H      0.032820000000     0.216500000000     0.840300000000     0.0500402  
H57      H      0.454360000000     0.279160000000     0.838320000000     0.0692339  
H58      H      0.458400000000     0.214770000000     0.588190000000     0.0433268  
H59      H      0.456360000000     0.214650000000     0.645350000000     0.0461222  
H60      H      0.536180000000     0.275560000000     0.648560000000     0.0707489  
H61      H      0.145060000000     0.461920000000     0.703670000000     0.0426827  
H62      H      0.087910000000     0.464490000000     0.701750000000     0.0459429  
H63      H      0.087730000000     0.026160000000     0.781090000000     0.0681443  
H64      H      0.337230000000     0.026320000000     0.705640000000     0.0486024  
H65      H      0.394270000000     0.025520000000     0.703580000000     0.047241   
H66      H      0.396580000000     0.462910000000     0.782150000000     0.0685555  
H67      H      0.027050000000     0.342160000000     0.777880000000     0.0440994  
H68      H      0.024320000000     0.399200000000     0.779900000000     0.0475207  
H69      H      0.462940000000     0.399460000000     0.700330000000     0.0692228  
H70      H      0.026290000000     0.149440000000     0.707320000000     0.0411686  
H71      H      0.023110000000     0.092420000000     0.704210000000     0.0448519  
H72      H      0.461860000000     0.091150000000     0.783850000000     0.0678556  
H73      H      0.339030000000     0.788520000000     0.518830000000     0.0417666  
H74      H      0.396630000000     0.792530000000     0.517870000000     0.0490955  
H75      H      0.401230000000     0.705820000000     0.467020000000     0.0706377  
H76      H      0.148080000000     0.706490000000     0.024370000000     0.042799   
H77      H      0.090950000000     0.707500000000     0.024440000000     0.0483956  
H78      H      0.091840000000     0.783780000000     0.459020000000     0.0683341  
H79      H      0.276920000000     0.838510000000     0.955990000000     0.0468645  
H80      H      0.276440000000     0.895620000000     0.956840000000     0.0499535  
H81      H      0.201220000000     0.894490000000     0.023360000000     0.069841   
H82      H      0.198020000000     0.647390000000     0.466650000000     0.0391769  
H83      H      0.193330000000     0.589910000000     0.468820000000     0.0466241  
H84      H      0.280990000000     0.585110000000     0.017980000000     0.0670614  
H85      H      0.267980000000     0.531200000000     0.396610000000     0.0454267  
H86      H      0.268910000000     0.532980000000     0.339440000000     0.0507106  
H87      H      0.208040000000     0.953040000000     0.335880000000     0.0713392  
H88      H      0.204590000000     0.025340000000     0.145780000000     0.0412406  
H89      H      0.200630000000     0.022120000000     0.088780000000     0.0449984  
H90      H      0.280090000000     0.460740000000     0.086380000000     0.0681403  
H91      H      0.030980000000     0.715580000000     0.397370000000     0.0439605  
H92      H      0.032820000000     0.716500000000     0.340300000000     0.0500105  
H93      H      0.454360000000     0.779160000000     0.338320000000     0.069235   
H94      H      0.458400000000     0.714770000000     0.088190000000     0.0437836  
H95      H      0.456360000000     0.714650000000     0.145350000000     0.0461864  
H96      H      0.536180000000     0.775560000000     0.148560000000     0.0707857  
H97      H      0.145060000000     0.961920000000     0.203670000000     0.0425526  
H98      H      0.087910000000     0.964490000000     0.201750000000     0.0458451  
H99      H      0.087730000000     0.526160000000     0.281090000000     0.0678651  
H100     H      0.337230000000     0.526320000000     0.205640000000     0.0483569  
H101     H      0.394270000000     0.525520000000     0.203580000000     0.0469155  
H102     H      0.396580000000     0.962910000000     0.282150000000     0.0684229  
H103     H      0.027050000000     0.842160000000     0.277880000000     0.0440754  
H104     H      0.024320000000     0.899200000000     0.279900000000     0.0474079  
H105     H      0.462940000000     0.899460000000     0.200330000000     0.0692098  
H106     H      0.026290000000     0.649440000000     0.207320000000     0.0411239  
H107     H      0.023110000000     0.592420000000     0.204210000000     0.0444837  
H108     H      0.461860000000     0.591160000000     0.283850000000     0.067416   
H109     H      0.339030000000     0.788520000000     0.018840000000     0.0421684  
H110     H      0.396630000000     0.792530000000     0.017870000000     0.0496423  
H111     H      0.401230000000     0.705820000000     0.967020000000     0.070405   
H112     H      0.148080000000     0.706490000000     0.524370000000     0.0425438  
H113     H      0.090950000000     0.707500000000     0.524440000000     0.0480073  
H114     H      0.091840000000     0.783780000000     0.959020000000     0.0681449  
H115     H      0.276920000000     0.838510000000     0.455990000000     0.0470383  
H116     H      0.276440000000     0.895620000000     0.456840000000     0.0501737  
H117     H      0.201220000000     0.894490000000     0.523360000000     0.0695053  
H118     H      0.198020000000     0.647390000000     0.966650000000     0.0388961  
H119     H      0.193330000000     0.589910000000     0.968820000000     0.0462912  
H120     H      0.280990000000     0.585110000000     0.517980000000     0.0665714  
H121     H      0.267980000000     0.531200000000     0.896610000000     0.0452865  
H122     H      0.268910000000     0.532980000000     0.839440000000     0.0506643  
H123     H      0.208040000000     0.953040000000     0.835880000000     0.0713187  
H124     H      0.204590000000     0.025340000000     0.645780000000     0.0410919  
H125     H      0.200630000000     0.022120000000     0.588780000000     0.0444518  
H126     H      0.280090000000     0.460740000000     0.586380000000     0.0676252  
H127     H      0.030980000000     0.715580000000     0.897370000000     0.0438252  
H128     H      0.032820000000     0.716500000000     0.840300000000     0.0499655  
H129     H      0.454360000000     0.779160000000     0.838320000000     0.0692136  
H130     H      0.458400000000     0.714770000000     0.588190000000     0.0432133  
H131     H      0.456360000000     0.714650000000     0.645350000000     0.046024   
H132     H      0.536180000000     0.775560000000     0.648560000000     0.070724   
H133     H      0.145060000000     0.961920000000     0.703670000000     0.0424809  
H134     H      0.087910000000     0.964490000000     0.701750000000     0.0456926  
H135     H      0.087730000000     0.526160000000     0.781090000000     0.0678091  
H136     H      0.337230000000     0.526320000000     0.705640000000     0.0482607  
H137     H      0.394270000000     0.525520000000     0.703580000000     0.0467672  
H138     H      0.396580000000     0.962910000000     0.782150000000     0.0683653  
H139     H      0.027050000000     0.842160000000     0.777880000000     0.044047   
H140     H      0.024320000000     0.899200000000     0.779900000000     0.0473515  
H141     H      0.462940000000     0.899460000000     0.700330000000     0.0690791  
H142     H      0.026290000000     0.649440000000     0.707320000000     0.0410232  
H143     H      0.023110000000     0.592420000000     0.704210000000     0.0443338  
H144     H      0.461860000000     0.591160000000     0.783850000000     0.0673555  
H145     H      0.839030000000     0.288510000000     0.518830000000     0.041743   
H146     H      0.896630000000     0.292530000000     0.517870000000     0.048872   
H147     H      0.901230000000     0.205810000000     0.467020000000     0.0705528  
H148     H      0.648080000000     0.206490000000     0.024370000000     0.0427387  
H149     H      0.590950000000     0.207500000000     0.024440000000     0.0478912  
H150     H      0.591830000000     0.283780000000     0.459020000000     0.0677291  
H151     H      0.776920000000     0.338510000000     0.955990000000     0.0468749  
H152     H      0.776440000000     0.395620000000     0.956840000000     0.0500303  
H153     H      0.701220000000     0.394490000000     0.023360000000     0.0698316  
H154     H      0.698020000000     0.147390000000     0.466650000000     0.0391681  
H155     H      0.693330000000     0.089910000000     0.468820000000     0.0468682  
H156     H      0.780990000000     0.085110000000     0.017980000000     0.0675101  
H157     H      0.767980000000     0.031200000000     0.396610000000     0.0456856  
H158     H      0.768910000000     0.032980000000     0.339440000000     0.0508401  
H159     H      0.708040000000     0.453040000000     0.335880000000     0.0713795  
H160     H      0.704590000000     0.525340000000     0.145780000000     0.0407993  
H161     H      0.700630000000     0.522120000000     0.088780000000     0.0443407  
H162     H      0.780090000000     0.960740000000     0.086380000000     0.0678544  
H163     H      0.530980000000     0.215580000000     0.397370000000     0.0435824  
H164     H      0.532820000000     0.216500000000     0.340300000000     0.0498473  
H165     H      0.954350000000     0.279160000000     0.338320000000     0.0691699  
H166     H      0.958400000000     0.214770000000     0.088190000000     0.0437781  
H167     H      0.956360000000     0.214650000000     0.145350000000     0.0461022  
H168     H      0.036180000000     0.275560000000     0.148560000000     0.0707576  
H169     H      0.645070000000     0.461920000000     0.203670000000     0.0425665  
H170     H      0.587910000000     0.464490000000     0.201750000000     0.0453842  
H171     H      0.587730000000     0.026160000000     0.281090000000     0.0675207  
H172     H      0.837230000000     0.026320000000     0.205640000000     0.0486336  
H173     H      0.894270000000     0.025520000000     0.203580000000     0.0471814  
H174     H      0.896580000000     0.462910000000     0.282150000000     0.0684162  
H175     H      0.527050000000     0.342160000000     0.277880000000     0.0437805  
H176     H      0.524320000000     0.399200000000     0.279900000000     0.0469821  
H177     H      0.962940000000     0.399460000000     0.200330000000     0.0690635  
H178     H      0.526290000000     0.149440000000     0.207320000000     0.0409309  
H179     H      0.523110000000     0.092420000000     0.204210000000     0.0444036  
H180     H      0.961860000000     0.091150000000     0.283850000000     0.067643   
H181     H      0.839030000000     0.288510000000     0.018840000000     0.0421445  
H182     H      0.896630000000     0.292530000000     0.017870000000     0.0494187  
H183     H      0.901230000000     0.205810000000     0.967020000000     0.0703214  
H184     H      0.648080000000     0.206490000000     0.524370000000     0.0424842  
H185     H      0.590950000000     0.207500000000     0.524440000000     0.0475017  
H186     H      0.591830000000     0.283780000000     0.959020000000     0.0675401  
H187     H      0.776920000000     0.338510000000     0.455990000000     0.0470482  
H188     H      0.776440000000     0.395620000000     0.456840000000     0.0502502  
H189     H      0.701220000000     0.394490000000     0.523360000000     0.0694946  
H190     H      0.698020000000     0.147390000000     0.966650000000     0.0388873  
H191     H      0.693330000000     0.089910000000     0.968820000000     0.0465362  
H192     H      0.780990000000     0.085110000000     0.517980000000     0.0670246  
H193     H      0.767980000000     0.031200000000     0.896610000000     0.0455465  
H194     H      0.768910000000     0.032980000000     0.839440000000     0.0507943  
H195     H      0.708040000000     0.453040000000     0.835880000000     0.0713593  
H196     H      0.704590000000     0.525340000000     0.645780000000     0.040648   
H197     H      0.700630000000     0.522120000000     0.588780000000     0.0437875  
H198     H      0.780090000000     0.960740000000     0.586380000000     0.0673379  
H199     H      0.530980000000     0.215580000000     0.897370000000     0.0434476  
H200     H      0.532820000000     0.216500000000     0.840300000000     0.0498024  
H201     H      0.954350000000     0.279160000000     0.838320000000     0.0691485  
H202     H      0.958400000000     0.214770000000     0.588190000000     0.0432103  
H203     H      0.956360000000     0.214650000000     0.645350000000     0.0459405  
H204     H      0.036180000000     0.275560000000     0.648560000000     0.070696   
H205     H      0.645070000000     0.461920000000     0.703670000000     0.0424947  
H206     H      0.587910000000     0.464490000000     0.701750000000     0.0452306  
H207     H      0.587730000000     0.026160000000     0.781090000000     0.0674648  
H208     H      0.837230000000     0.026320000000     0.705640000000     0.0485395  
H209     H      0.894270000000     0.025520000000     0.703580000000     0.0470354  
H210     H      0.896580000000     0.462910000000     0.782150000000     0.0683588  
H211     H      0.527050000000     0.342160000000     0.777880000000     0.0437524  
H212     H      0.524320000000     0.399200000000     0.779900000000     0.0469258  
H213     H      0.962940000000     0.399460000000     0.700330000000     0.0689327  
H214     H      0.526290000000     0.149440000000     0.707320000000     0.0408293  
H215     H      0.523110000000     0.092420000000     0.704210000000     0.0442537  
H216     H      0.961860000000     0.091150000000     0.783850000000     0.0675842  
H217     H      0.839030000000     0.788520000000     0.518830000000     0.0416997  
H218     H      0.896630000000     0.792530000000     0.517870000000     0.0488034  
H219     H      0.901230000000     0.705820000000     0.467020000000     0.0704273  
H220     H      0.648080000000     0.706490000000     0.024370000000     0.0426278  
H221     H      0.590950000000     0.707500000000     0.024440000000     0.0477596  
H222     H      0.591830000000     0.783780000000     0.459020000000     0.0676863  
H223     H      0.776920000000     0.838510000000     0.955990000000     0.0468335  
H224     H      0.776440000000     0.895620000000     0.956840000000     0.04989    
H225     H      0.701220000000     0.894490000000     0.023360000000     0.0696857  
H226     H      0.698020000000     0.647390000000     0.466650000000     0.0390209  
H227     H      0.693330000000     0.589910000000     0.468820000000     0.0463758  
H228     H      0.780990000000     0.585110000000     0.017980000000     0.0669678  
H229     H      0.767980000000     0.531200000000     0.396610000000     0.0453637  
H230     H      0.768910000000     0.532980000000     0.339440000000     0.0506718  
H231     H      0.708040000000     0.953040000000     0.335880000000     0.0712503  
H232     H      0.704590000000     0.025340000000     0.145780000000     0.0411027  
H233     H      0.700630000000     0.022120000000     0.088780000000     0.0447976  
H234     H      0.780090000000     0.460740000000     0.086380000000     0.0680663  
H235     H      0.530980000000     0.715580000000     0.397370000000     0.0434744  
H236     H      0.532820000000     0.716500000000     0.340300000000     0.0497712  
H237     H      0.954350000000     0.779160000000     0.338320000000     0.0691498  
H238     H      0.958400000000     0.714770000000     0.088190000000     0.0436662  
H239     H      0.956360000000     0.714650000000     0.145350000000     0.0460042  
H240     H      0.036180000000     0.775560000000     0.148560000000     0.0707324  
H241     H      0.645070000000     0.961920000000     0.203670000000     0.0423648  
H242     H      0.587910000000     0.964490000000     0.201750000000     0.0451341  
H243     H      0.587730000000     0.526160000000     0.281090000000     0.0671817  
H244     H      0.837230000000     0.526320000000     0.205640000000     0.0482934  
H245     H      0.894270000000     0.525520000000     0.203580000000     0.0467088  
H246     H      0.896580000000     0.962910000000     0.282150000000     0.0682264  
H247     H      0.527050000000     0.842160000000     0.277880000000     0.0437275  
H248     H      0.524320000000     0.899200000000     0.279900000000     0.0468123  
H249     H      0.962940000000     0.899460000000     0.200330000000     0.0689207  
H250     H      0.526290000000     0.649440000000     0.207320000000     0.0407845  
H251     H      0.523110000000     0.592420000000     0.204210000000     0.0438832  
H252     H      0.961860000000     0.591160000000     0.283850000000     0.0671431  
H253     H      0.839030000000     0.788520000000     0.018840000000     0.0421023  
H254     H      0.896630000000     0.792530000000     0.017870000000     0.0493509  
H255     H      0.901230000000     0.705820000000     0.967020000000     0.0701954  
H256     H      0.648080000000     0.706490000000     0.524370000000     0.0423712  
H257     H      0.590950000000     0.707500000000     0.524440000000     0.0473677  
H258     H      0.591830000000     0.783780000000     0.959020000000     0.0674974  
H259     H      0.776920000000     0.838510000000     0.455990000000     0.0470068  
H260     H      0.776440000000     0.895620000000     0.456840000000     0.0501098  
H261     H      0.701220000000     0.894490000000     0.523360000000     0.069348   
H262     H      0.698020000000     0.647390000000     0.966650000000     0.0387397  
H263     H      0.693330000000     0.589910000000     0.968820000000     0.0460426  
H264     H      0.780990000000     0.585110000000     0.517980000000     0.0664774  
H265     H      0.767980000000     0.531200000000     0.896610000000     0.0452237  
H266     H      0.768910000000     0.532980000000     0.839440000000     0.0506256  
H267     H      0.708040000000     0.953040000000     0.835880000000     0.0712298  
H268     H      0.704590000000     0.025340000000     0.645780000000     0.0409532  
H269     H      0.700630000000     0.022120000000     0.588780000000     0.044249   
H270     H      0.780090000000     0.460740000000     0.586380000000     0.0675505  
H271     H      0.530980000000     0.715580000000     0.897370000000     0.0433392  
H272     H      0.532820000000     0.716500000000     0.840300000000     0.0497261  
H273     H      0.954350000000     0.779160000000     0.838320000000     0.0691284  
H274     H      0.958400000000     0.714770000000     0.588190000000     0.0430961  
H275     H      0.956360000000     0.714650000000     0.645350000000     0.0458416  
H276     H      0.036180000000     0.775560000000     0.648560000000     0.0706706  
H277     H      0.645070000000     0.961920000000     0.703670000000     0.0422924  
H278     H      0.587910000000     0.964490000000     0.701750000000     0.0449797  
H279     H      0.587730000000     0.526160000000     0.781090000000     0.0671253  
H280     H      0.837230000000     0.526320000000     0.705640000000     0.0481971  
H281     H      0.894270000000     0.525520000000     0.703580000000     0.04656    
H282     H      0.896580000000     0.962910000000     0.782150000000     0.0681692  
H283     H      0.527050000000     0.842160000000     0.777880000000     0.0436993  
H284     H      0.524320000000     0.899200000000     0.779900000000     0.0467559  
H285     H      0.962940000000     0.899460000000     0.700330000000     0.0687894  
H286     H      0.526290000000     0.649440000000     0.707320000000     0.040682   
H287     H      0.523110000000     0.592420000000     0.704210000000     0.0437309  
H288     H      0.961860000000     0.591160000000     0.783850000000     0.0670831  
N1       N      0.403130000000     0.249530000000     0.992220000000    -0.172547   
N2       N      0.337650000000     0.245730000000     0.992220000000    -0.189357   
N3       N      0.341850000000     0.193620000000     0.470050000000    -0.0367619  
N4       N      0.087460000000     0.245830000000     0.991800000000    -0.173649   
N5       N      0.152910000000     0.242880000000     0.989680000000    -0.189696   
N6       N      0.152930000000     0.285150000000     0.449980000000    -0.0285515  
N7       N      0.238830000000     0.398960000000     0.490290000000    -0.171958   
N8       N      0.240700000000     0.333390000000     0.490830000000    -0.187885   
N9       N      0.197570000000     0.333030000000     0.029810000000    -0.0278626  
N10      N      0.236760000000     0.083350000000     0.493740000000    -0.172219   
N11      N      0.241370000000     0.148720000000     0.492310000000    -0.188756   
N12      N      0.293680000000     0.144490000000     0.013950000000    -0.0347857  
N13      N      0.238670000000     0.493030000000     0.333630000000    -0.169743   
N14      N      0.235650000000     0.992510000000     0.399150000000    -0.19201    
N15      N      0.199430000000     0.447570000000     0.396890000000    -0.0301417  
N16      N      0.239980000000     0.490980000000     0.083650000000    -0.172949   
N17      N      0.243460000000     0.493330000000     0.149130000000    -0.19004    
N18      N      0.289420000000     0.957970000000     0.147720000000    -0.0274091  
N19      N      0.993760000000     0.248060000000     0.335370000000    -0.173554   
N20      N      0.992820000000     0.248430000000     0.400950000000    -0.192558   
N21      N      0.447480000000     0.284570000000     0.399860000000    -0.0277839  
N22      N      0.996140000000     0.245140000000     0.150900000000    -0.173938   
N23      N      0.997340000000     0.246790000000     0.085370000000    -0.191636   
N24      N      0.543520000000     0.281810000000     0.087280000000    -0.0279159  
N25      N      0.083890000000     0.995650000000     0.241250000000    -0.175469   
N26      N      0.149410000000     0.994130000000     0.242300000000    -0.191651   
N27      N      0.149110000000     0.029640000000     0.288200000000    -0.0279693  
N28      N      0.399400000000     0.994050000000     0.242700000000    -0.174611   
N29      N      0.333810000000     0.993500000000     0.243890000000    -0.189645   
N30      N      0.335170000000     0.457520000000     0.289390000000    -0.0277146  
N31      N      0.493160000000     0.403270000000     0.240390000000    -0.172956   
N32      N      0.494960000000     0.337740000000     0.239150000000    -0.189778   
N33      N      0.459870000000     0.337930000000     0.192940000000    -0.0278591  
N34      N      0.492030000000     0.087830000000     0.243710000000    -0.172837   
N35      N      0.494300000000     0.153370000000     0.246180000000    -0.189963   
N36      N      0.459090000000     0.152620000000     0.292280000000    -0.0278193  
N37      N      0.403130000000     0.249530000000     0.492220000000    -0.170263   
N38      N      0.337650000000     0.245730000000     0.492220000000    -0.187834   
N39      N      0.341850000000     0.193620000000     0.970050000000    -0.0366777  
N40      N      0.087460000000     0.245830000000     0.491800000000    -0.171332   
N41      N      0.152910000000     0.242880000000     0.489680000000    -0.18817    
N42      N      0.152930000000     0.285150000000     0.949980000000    -0.0284828  
N43      N      0.238830000000     0.398960000000     0.990290000000    -0.174279   
N44      N      0.240700000000     0.333390000000     0.990830000000    -0.189374   
N45      N      0.197570000000     0.333030000000     0.529810000000    -0.0276085  
N46      N      0.236760000000     0.083350000000     0.993740000000    -0.174558   
N47      N      0.241370000000     0.148720000000     0.992310000000    -0.190157   
N48      N      0.293680000000     0.144490000000     0.513950000000    -0.0367939  
N49      N      0.238670000000     0.493030000000     0.833630000000    -0.169749   
N50      N      0.235650000000     0.992510000000     0.899150000000    -0.191971   
N51      N      0.199430000000     0.447570000000     0.896890000000    -0.0301149  
N52      N      0.239980000000     0.490980000000     0.583650000000    -0.173364   
N53      N      0.243460000000     0.493330000000     0.649130000000    -0.190066   
N54      N      0.289420000000     0.957970000000     0.647720000000    -0.027422   
N55      N      0.993760000000     0.248060000000     0.835370000000    -0.173566   
N56      N      0.992820000000     0.248430000000     0.900950000000    -0.192518   
N57      N      0.447480000000     0.284570000000     0.899860000000    -0.0277777  
N58      N      0.996140000000     0.245140000000     0.650900000000    -0.173966   
N59      N      0.997340000000     0.246790000000     0.585370000000    -0.191928   
N60      N      0.543520000000     0.281810000000     0.587280000000    -0.0278858  
N61      N      0.083890000000     0.995650000000     0.741250000000    -0.175505   
N62      N      0.149410000000     0.994130000000     0.742300000000    -0.191631   
N63      N      0.149110000000     0.029640000000     0.788200000000    -0.0279664  
N64      N      0.399400000000     0.994050000000     0.742700000000    -0.17464    
N65      N      0.333810000000     0.993500000000     0.743890000000    -0.189651   
N66      N      0.335170000000     0.457520000000     0.789390000000    -0.0277111  
N67      N      0.493160000000     0.403270000000     0.740390000000    -0.17298    
N68      N      0.494960000000     0.337740000000     0.739150000000    -0.189774   
N69      N      0.459870000000     0.337930000000     0.692940000000    -0.0278539  
N70      N      0.492030000000     0.087830000000     0.743710000000    -0.172861   
N71      N      0.494300000000     0.153370000000     0.746180000000    -0.189966   
N72      N      0.459090000000     0.152620000000     0.792280000000    -0.0278056  
N73      N      0.403130000000     0.749530000000     0.992220000000    -0.172563   
N74      N      0.337650000000     0.745730000000     0.992220000000    -0.189351   
N75      N      0.341850000000     0.693620000000     0.470050000000    -0.0367776  
N76      N      0.087460000000     0.745830000000     0.991800000000    -0.173618   
N77      N      0.152910000000     0.742880000000     0.989680000000    -0.189709   
N78      N      0.152930000000     0.785150000000     0.449980000000    -0.0285361  
N79      N      0.238830000000     0.898960000000     0.490290000000    -0.171949   
N80      N      0.240700000000     0.833390000000     0.490830000000    -0.187907   
N81      N      0.197570000000     0.833030000000     0.029810000000    -0.027882   
N82      N      0.236760000000     0.583350000000     0.493740000000    -0.172555   
N83      N      0.241370000000     0.648720000000     0.492310000000    -0.188834   
N84      N      0.293680000000     0.644490000000     0.013950000000    -0.0348137  
N85      N      0.238670000000     0.993020000000     0.333630000000    -0.171228   
N86      N      0.235650000000     0.492510000000     0.399150000000    -0.189777   
N87      N      0.199430000000     0.947560000000     0.396890000000    -0.0300287  
N88      N      0.239980000000     0.990980000000     0.083650000000    -0.175212   
N89      N      0.243460000000     0.993320000000     0.149130000000    -0.191495   
N90      N      0.289420000000     0.457980000000     0.147720000000    -0.0275663  
N91      N      0.993760000000     0.748060000000     0.335370000000    -0.173565   
N92      N      0.992820000000     0.748430000000     0.400950000000    -0.19258    
N93      N      0.447480000000     0.784570000000     0.399860000000    -0.0277795  
N94      N      0.996140000000     0.745140000000     0.150900000000    -0.173954   
N95      N      0.997340000000     0.746790000000     0.085370000000    -0.191606   
N96      N      0.543520000000     0.781810000000     0.087280000000    -0.0279254  
N97      N      0.083890000000     0.495650000000     0.241250000000    -0.173201   
N98      N      0.149410000000     0.494130000000     0.242300000000    -0.190162   
N99      N      0.149110000000     0.529640000000     0.288200000000    -0.0277261  
N100     N      0.399400000000     0.494050000000     0.242700000000    -0.172366   
N101     N      0.333810000000     0.493500000000     0.243890000000    -0.188205   
N102     N      0.335170000000     0.957520000000     0.289390000000    -0.0276098  
N103     N      0.493160000000     0.903270000000     0.240390000000    -0.172938   
N104     N      0.494960000000     0.837740000000     0.239150000000    -0.189777   
N105     N      0.459870000000     0.837930000000     0.192940000000    -0.0278555  
N106     N      0.492030000000     0.587830000000     0.243710000000    -0.173162   
N107     N      0.494300000000     0.653370000000     0.246180000000    -0.189968   
N108     N      0.459090000000     0.652620000000     0.292280000000    -0.027827   
N109     N      0.403130000000     0.749530000000     0.492220000000    -0.170273   
N110     N      0.337650000000     0.745730000000     0.492220000000    -0.187825   
N111     N      0.341850000000     0.693620000000     0.970050000000    -0.0366933  
N112     N      0.087460000000     0.745830000000     0.491800000000    -0.171295   
N113     N      0.152910000000     0.742880000000     0.489680000000    -0.188179   
N114     N      0.152930000000     0.785150000000     0.949980000000    -0.0284672  
N115     N      0.238830000000     0.898960000000     0.990290000000    -0.174272   
N116     N      0.240700000000     0.833390000000     0.990830000000    -0.1894     
N117     N      0.197570000000     0.833030000000     0.529810000000    -0.0276267  
N118     N      0.236760000000     0.583350000000     0.993740000000    -0.174906   
N119     N      0.241370000000     0.648720000000     0.992310000000    -0.190241   
N120     N      0.293680000000     0.644490000000     0.513950000000    -0.0368301  
N121     N      0.238670000000     0.993020000000     0.833630000000    -0.171236   
N122     N      0.235650000000     0.492510000000     0.899150000000    -0.189736   
N123     N      0.199430000000     0.947560000000     0.896890000000    -0.0300021  
N124     N      0.239980000000     0.990980000000     0.583650000000    -0.175638   
N125     N      0.243460000000     0.993320000000     0.649130000000    -0.191527   
N126     N      0.289420000000     0.457980000000     0.647720000000    -0.0275797  
N127     N      0.993760000000     0.748060000000     0.835370000000    -0.173577   
N128     N      0.992820000000     0.748430000000     0.900950000000    -0.192539   
N129     N      0.447480000000     0.784570000000     0.899860000000    -0.0277734  
N130     N      0.996140000000     0.745140000000     0.650900000000    -0.173982   
N131     N      0.997340000000     0.746790000000     0.585370000000    -0.191898   
N132     N      0.543520000000     0.781810000000     0.587280000000    -0.0278953  
N133     N      0.083890000000     0.495650000000     0.741250000000    -0.173233   
N134     N      0.149410000000     0.494130000000     0.742300000000    -0.190139   
N135     N      0.149110000000     0.529640000000     0.788200000000    -0.0277225  
N136     N      0.399400000000     0.494050000000     0.742700000000    -0.172389   
N137     N      0.333810000000     0.493500000000     0.743890000000    -0.188207   
N138     N      0.335170000000     0.957520000000     0.789390000000    -0.0276061  
N139     N      0.493160000000     0.903270000000     0.740390000000    -0.172962   
N140     N      0.494960000000     0.837740000000     0.739150000000    -0.189773   
N141     N      0.459870000000     0.837930000000     0.692940000000    -0.0278503  
N142     N      0.492030000000     0.587830000000     0.743710000000    -0.173188   
N143     N      0.494300000000     0.653370000000     0.746180000000    -0.189971   
N144     N      0.459090000000     0.652620000000     0.792280000000    -0.0278133  
N145     N      0.903120000000     0.249530000000     0.992220000000    -0.172411   
N146     N      0.837650000000     0.245730000000     0.992220000000    -0.189377   
N147     N      0.841850000000     0.193620000000     0.470050000000    -0.0368027  
N148     N      0.587460000000     0.245830000000     0.991800000000    -0.174122   
N149     N      0.652910000000     0.242880000000     0.989680000000    -0.189691   
N150     N      0.652930000000     0.285150000000     0.449980000000    -0.0285227  
N151     N      0.738830000000     0.398960000000     0.490290000000    -0.171987   
N152     N      0.740700000000     0.333390000000     0.490830000000    -0.18789    
N153     N      0.697570000000     0.333030000000     0.029810000000    -0.027862   
N154     N      0.736760000000     0.083350000000     0.493740000000    -0.172305   
N155     N      0.741370000000     0.148720000000     0.492310000000    -0.188747   
N156     N      0.793680000000     0.144490000000     0.013950000000    -0.0347887  
N157     N      0.738670000000     0.493030000000     0.333630000000    -0.169745   
N158     N      0.735650000000     0.992510000000     0.399150000000    -0.192029   
N159     N      0.699430000000     0.447570000000     0.396890000000    -0.0301035  
N160     N      0.739980000000     0.490980000000     0.083650000000    -0.172982   
N161     N      0.743460000000     0.493330000000     0.149130000000    -0.190046   
N162     N      0.789420000000     0.957970000000     0.147720000000    -0.0274055  
N163     N      0.493760000000     0.248060000000     0.335370000000    -0.171556   
N164     N      0.492820000000     0.248430000000     0.400950000000    -0.18961    
N165     N      0.947480000000     0.284570000000     0.399860000000    -0.0277702  
N166     N      0.496140000000     0.245140000000     0.150900000000    -0.171872   
N167     N      0.497340000000     0.246790000000     0.085370000000    -0.18977    
N168     N      0.043520000000     0.281810000000     0.087280000000    -0.0281212  
N169     N      0.583890000000     0.995650000000     0.241250000000    -0.175933   
N170     N      0.649410000000     0.994130000000     0.242300000000    -0.191664   
N171     N      0.649110000000     0.029640000000     0.288200000000    -0.0279587  
N172     N      0.899410000000     0.994050000000     0.242700000000    -0.174659   
N173     N      0.833810000000     0.993500000000     0.243890000000    -0.189645   
N174     N      0.835170000000     0.457520000000     0.289390000000    -0.0277082  
N175     N      0.993160000000     0.403270000000     0.240390000000    -0.176014   
N176     N      0.994960000000     0.337740000000     0.239150000000    -0.191778   
N177     N      0.959870000000     0.337930000000     0.192940000000    -0.0276799  
N178     N      0.992030000000     0.087830000000     0.243710000000    -0.175882   
N179     N      0.994310000000     0.153370000000     0.246180000000    -0.191985   
N180     N      0.959090000000     0.152620000000     0.292280000000    -0.0276448  
N181     N      0.903120000000     0.249530000000     0.492220000000    -0.170126   
N182     N      0.837650000000     0.245730000000     0.492220000000    -0.187855   
N183     N      0.841850000000     0.193620000000     0.970050000000    -0.0367184  
N184     N      0.587460000000     0.245830000000     0.491800000000    -0.171799   
N185     N      0.652910000000     0.242880000000     0.489680000000    -0.18816    
N186     N      0.652930000000     0.285150000000     0.949980000000    -0.0284538  
N187     N      0.738830000000     0.398960000000     0.990290000000    -0.174311   
N188     N      0.740700000000     0.333390000000     0.990830000000    -0.189382   
N189     N      0.697570000000     0.333030000000     0.529810000000    -0.0276074  
N190     N      0.736760000000     0.083350000000     0.993740000000    -0.174646   
N191     N      0.741370000000     0.148720000000     0.992310000000    -0.19015    
N192     N      0.793680000000     0.144490000000     0.513950000000    -0.0367984  
N193     N      0.738670000000     0.493030000000     0.833630000000    -0.169751   
N194     N      0.735650000000     0.992510000000     0.899150000000    -0.191991   
N195     N      0.699430000000     0.447570000000     0.896890000000    -0.0300768  
N196     N      0.739980000000     0.490980000000     0.583650000000    -0.173397   
N197     N      0.743460000000     0.493330000000     0.649130000000    -0.190072   
N198     N      0.789420000000     0.957970000000     0.647720000000    -0.0274183  
N199     N      0.493760000000     0.248060000000     0.835370000000    -0.171569   
N200     N      0.492820000000     0.248430000000     0.900950000000    -0.189572   
N201     N      0.947480000000     0.284570000000     0.899860000000    -0.027764   
N202     N      0.496140000000     0.245140000000     0.650900000000    -0.171895   
N203     N      0.497340000000     0.246790000000     0.585370000000    -0.190058   
N204     N      0.043520000000     0.281810000000     0.587280000000    -0.028092   
N205     N      0.583890000000     0.995650000000     0.741250000000    -0.17597    
N206     N      0.649410000000     0.994130000000     0.742300000000    -0.191644   
N207     N      0.649110000000     0.029640000000     0.788200000000    -0.0279557  
N208     N      0.899410000000     0.994050000000     0.742700000000    -0.174688   
N209     N      0.833810000000     0.993500000000     0.743890000000    -0.18965    
N210     N      0.835170000000     0.457520000000     0.789390000000    -0.0277048  
N211     N      0.993160000000     0.403270000000     0.740390000000    -0.176041   
N212     N      0.994960000000     0.337740000000     0.739150000000    -0.191776   
N213     N      0.959870000000     0.337930000000     0.692940000000    -0.0276745  
N214     N      0.992030000000     0.087830000000     0.743710000000    -0.17591    
N215     N      0.994310000000     0.153370000000     0.746180000000    -0.19199    
N216     N      0.959090000000     0.152620000000     0.792280000000    -0.0276309  
N217     N      0.903120000000     0.749530000000     0.992220000000    -0.172426   
N218     N      0.837650000000     0.745730000000     0.992220000000    -0.189372   
N219     N      0.841850000000     0.693620000000     0.470050000000    -0.0368184  
N220     N      0.587460000000     0.745830000000     0.991800000000    -0.174092   
N221     N      0.652910000000     0.742880000000     0.989680000000    -0.189704   
N222     N      0.652930000000     0.785150000000     0.449980000000    -0.0285072  
N223     N      0.738830000000     0.898960000000     0.490290000000    -0.171978   
N224     N      0.740700000000     0.833390000000     0.490830000000    -0.187913   
N225     N      0.697570000000     0.833030000000     0.029810000000    -0.0278814  
N226     N      0.736760000000     0.583350000000     0.493740000000    -0.172643   
N227     N      0.741370000000     0.648720000000     0.492310000000    -0.188826   
N228     N      0.793680000000     0.644490000000     0.013950000000    -0.0348168  
N229     N      0.738670000000     0.993020000000     0.333630000000    -0.171234   
N230     N      0.735650000000     0.492510000000     0.399150000000    -0.189791   
N231     N      0.699430000000     0.947560000000     0.396890000000    -0.0299904  
N232     N      0.739980000000     0.990980000000     0.083650000000    -0.175251   
N233     N      0.743460000000     0.993320000000     0.149130000000    -0.191505   
N234     N      0.789420000000     0.457980000000     0.147720000000    -0.0275629  
N235     N      0.493760000000     0.748060000000     0.335370000000    -0.171563   
N236     N      0.492820000000     0.748430000000     0.400950000000    -0.189626   
N237     N      0.947480000000     0.784570000000     0.399860000000    -0.0277658  
N238     N      0.496140000000     0.745140000000     0.150900000000    -0.171885   
N239     N      0.497340000000     0.746790000000     0.085370000000    -0.189737   
N240     N      0.043520000000     0.781810000000     0.087280000000    -0.028131   
N241     N      0.583890000000     0.495650000000     0.241250000000    -0.173655   
N242     N      0.649410000000     0.494130000000     0.242300000000    -0.190169   
N243     N      0.649110000000     0.529640000000     0.288200000000    -0.0277146  
N244     N      0.899410000000     0.494050000000     0.242700000000    -0.172413   
N245     N      0.833810000000     0.493500000000     0.243890000000    -0.188203   
N246     N      0.835170000000     0.957520000000     0.289390000000    -0.0276033  
N247     N      0.993160000000     0.903270000000     0.240390000000    -0.175997   
N248     N      0.994960000000     0.837740000000     0.239150000000    -0.191778   
N249     N      0.959870000000     0.837930000000     0.192940000000    -0.0276761  
N250     N      0.992030000000     0.587830000000     0.243710000000    -0.176219   
N251     N      0.994310000000     0.653370000000     0.246180000000    -0.191997   
N252     N      0.959090000000     0.652620000000     0.292280000000    -0.0276523  
N253     N      0.903120000000     0.749530000000     0.492220000000    -0.170136   
N254     N      0.837650000000     0.745730000000     0.492220000000    -0.187846   
N255     N      0.841850000000     0.693620000000     0.970050000000    -0.0367341  
N256     N      0.587460000000     0.745830000000     0.491800000000    -0.171763   
N257     N      0.652910000000     0.742880000000     0.489680000000    -0.18817    
N258     N      0.652930000000     0.785150000000     0.949980000000    -0.0284382  
N259     N      0.738830000000     0.898960000000     0.990290000000    -0.174304   
N260     N      0.740700000000     0.833390000000     0.990830000000    -0.189407   
N261     N      0.697570000000     0.833030000000     0.529810000000    -0.0276256  
N262     N      0.736760000000     0.583350000000     0.993740000000    -0.174996   
N263     N      0.741370000000     0.648720000000     0.992310000000    -0.190234   
N264     N      0.793680000000     0.644490000000     0.513950000000    -0.0368346  
N265     N      0.738670000000     0.993020000000     0.833630000000    -0.171242   
N266     N      0.735650000000     0.492510000000     0.899150000000    -0.189751   
N267     N      0.699430000000     0.947560000000     0.896890000000    -0.0299639  
N268     N      0.739980000000     0.990980000000     0.583650000000    -0.175677   
N269     N      0.743460000000     0.993320000000     0.649130000000    -0.191537   
N270     N      0.789420000000     0.457980000000     0.647720000000    -0.0275763  
N271     N      0.493760000000     0.748060000000     0.835370000000    -0.171577   
N272     N      0.492820000000     0.748430000000     0.900950000000    -0.189588   
N273     N      0.947480000000     0.784570000000     0.899860000000    -0.0277596  
N274     N      0.496140000000     0.745140000000     0.650900000000    -0.171908   
N275     N      0.497340000000     0.746790000000     0.585370000000    -0.190025   
N276     N      0.043520000000     0.781810000000     0.587280000000    -0.0281018  
N277     N      0.583890000000     0.495650000000     0.741250000000    -0.173687   
N278     N      0.649410000000     0.494130000000     0.742300000000    -0.190145   
N279     N      0.649110000000     0.529640000000     0.788200000000    -0.027711   
N280     N      0.899410000000     0.494050000000     0.742700000000    -0.172436   
N281     N      0.833810000000     0.493500000000     0.743890000000    -0.188205   
N282     N      0.835170000000     0.957520000000     0.789390000000    -0.0275996  
N283     N      0.993160000000     0.903270000000     0.740390000000    -0.176024   
N284     N      0.994960000000     0.837740000000     0.739150000000    -0.191775   
N285     N      0.959870000000     0.837930000000     0.692940000000    -0.0276706  
N286     N      0.992030000000     0.587830000000     0.743710000000    -0.176248   
N287     N      0.994310000000     0.653370000000     0.746180000000    -0.192002   
N288     N      0.959090000000     0.652620000000     0.792280000000    -0.0276384  
Ni1      Ni     0.491450000000     0.995970000000     0.213960000000     0.998158   
Ni2      Ni     0.491930000000     0.495050000000     0.269740000000     1.01397    
Ni3      Ni     0.022640000000     0.245530000000     0.243530000000     1.01586    
Ni4      Ni     0.466880000000     0.245670000000     0.242710000000     1.01996    
Ni5      Ni     0.241400000000     0.465550000000     0.241320000000     1.02217    
Ni6      Ni     0.241770000000     0.021340000000     0.241470000000     1.01781    
Ni7      Ni     0.265110000000     0.991360000000     0.490650000000     1.01982    
Ni8      Ni     0.209370000000     0.490900000000     0.492070000000     1.00562    
Ni9      Ni     0.994910000000     0.220350000000     0.993020000000     1.01728    
Ni10     Ni     0.995780000000     0.276150000000     0.493350000000     0.997315   
Ni11     Ni     0.244690000000     0.241340000000     0.019200000000     1.00946    
Ni12     Ni     0.245530000000     0.241130000000     0.463470000000     1.01563    
Ni13     Ni     0.491450000000     0.995970000000     0.713960000000     0.997829   
Ni14     Ni     0.491930000000     0.495050000000     0.769740000000     1.01393    
Ni15     Ni     0.022640000000     0.245530000000     0.743530000000     1.01591    
Ni16     Ni     0.466880000000     0.245670000000     0.742710000000     1.01976    
Ni17     Ni     0.241400000000     0.465550000000     0.741320000000     1.02218    
Ni18     Ni     0.241770000000     0.021340000000     0.741470000000     1.0178     
Ni19     Ni     0.265110000000     0.991360000000     0.990650000000     1.01543    
Ni20     Ni     0.209370000000     0.490900000000     0.992070000000     1.00125    
Ni21     Ni     0.994910000000     0.220350000000     0.493020000000     1.02146    
Ni22     Ni     0.995780000000     0.276150000000     0.993350000000     0.992897   
Ni23     Ni     0.244690000000     0.241340000000     0.519200000000     1.00663    
Ni24     Ni     0.245530000000     0.241130000000     0.963470000000     1.01014    
Ni25     Ni     0.491450000000     0.495970000000     0.213960000000     1.00267    
Ni26     Ni     0.491930000000     0.995050000000     0.269740000000     1.00971    
Ni27     Ni     0.022640000000     0.745530000000     0.243530000000     1.01585    
Ni28     Ni     0.466880000000     0.745670000000     0.242710000000     1.01996    
Ni29     Ni     0.241400000000     0.965550000000     0.241320000000     1.01678    
Ni30     Ni     0.241770000000     0.521340000000     0.241470000000     1.01507    
Ni31     Ni     0.265110000000     0.491370000000     0.490650000000     1.02413    
Ni32     Ni     0.209370000000     0.990900000000     0.492070000000     1.00136    
Ni33     Ni     0.994910000000     0.720350000000     0.993020000000     1.01685    
Ni34     Ni     0.995780000000     0.776150000000     0.493350000000     0.997217   
Ni35     Ni     0.244690000000     0.741340000000     0.019200000000     1.0095     
Ni36     Ni     0.245530000000     0.741130000000     0.463470000000     1.01557    
Ni37     Ni     0.491450000000     0.495970000000     0.713960000000     1.00235    
Ni38     Ni     0.491930000000     0.995050000000     0.769740000000     1.00966    
Ni39     Ni     0.022640000000     0.745530000000     0.743530000000     1.0159     
Ni40     Ni     0.466880000000     0.745670000000     0.742710000000     1.01976    
Ni41     Ni     0.241400000000     0.965550000000     0.741320000000     1.01678    
Ni42     Ni     0.241770000000     0.521340000000     0.741470000000     1.01505    
Ni43     Ni     0.265110000000     0.491370000000     0.990650000000     1.01974    
Ni44     Ni     0.209370000000     0.990900000000     0.992070000000     0.997      
Ni45     Ni     0.994910000000     0.720350000000     0.493020000000     1.02104    
Ni46     Ni     0.995780000000     0.776150000000     0.993350000000     0.992794   
Ni47     Ni     0.244690000000     0.741340000000     0.519200000000     1.00666    
Ni48     Ni     0.245530000000     0.741130000000     0.963470000000     1.01007    
Ni49     Ni     0.991450000000     0.995970000000     0.213960000000     0.992378   
Ni50     Ni     0.991920000000     0.495050000000     0.269740000000     1.00816    
Ni51     Ni     0.522640000000     0.245530000000     0.243530000000     1.0121     
Ni52     Ni     0.966880000000     0.245670000000     0.242710000000     1.01277    
Ni53     Ni     0.741400000000     0.465550000000     0.241320000000     1.02213    
Ni54     Ni     0.741770000000     0.021340000000     0.241470000000     1.01781    
Ni55     Ni     0.765110000000     0.991360000000     0.490650000000     1.01979    
Ni56     Ni     0.709370000000     0.490900000000     0.492070000000     1.00525    
Ni57     Ni     0.494910000000     0.220350000000     0.993020000000     1.02283    
Ni58     Ni     0.495780000000     0.276150000000     0.493350000000     1.00924    
Ni59     Ni     0.744690000000     0.241340000000     0.019200000000     1.00941    
Ni60     Ni     0.745530000000     0.241130000000     0.463470000000     1.01581    
Ni61     Ni     0.991450000000     0.995970000000     0.713960000000     0.992041   
Ni62     Ni     0.991920000000     0.495050000000     0.769740000000     1.00812    
Ni63     Ni     0.522640000000     0.245530000000     0.743530000000     1.01214    
Ni64     Ni     0.966880000000     0.245670000000     0.742710000000     1.01256    
Ni65     Ni     0.741400000000     0.465550000000     0.741320000000     1.02214    
Ni66     Ni     0.741770000000     0.021340000000     0.741470000000     1.0178     
Ni67     Ni     0.765110000000     0.991360000000     0.990650000000     1.0154     
Ni68     Ni     0.709370000000     0.490900000000     0.992070000000     1.00088    
Ni69     Ni     0.494910000000     0.220350000000     0.493020000000     1.02704    
Ni70     Ni     0.495780000000     0.276150000000     0.993350000000     1.00477    
Ni71     Ni     0.744690000000     0.241340000000     0.519200000000     1.00658    
Ni72     Ni     0.745530000000     0.241130000000     0.963470000000     1.01031    
Ni73     Ni     0.991450000000     0.495970000000     0.213960000000     0.99688    
Ni74     Ni     0.991920000000     0.995050000000     0.269740000000     1.00391    
Ni75     Ni     0.522640000000     0.745530000000     0.243530000000     1.01208    
Ni76     Ni     0.966880000000     0.745670000000     0.242710000000     1.01276    
Ni77     Ni     0.741400000000     0.965550000000     0.241320000000     1.01673    
Ni78     Ni     0.741770000000     0.521340000000     0.241470000000     1.01506    
Ni79     Ni     0.765110000000     0.491370000000     0.490650000000     1.02412    
Ni80     Ni     0.709370000000     0.990900000000     0.492070000000     1.00097    
Ni81     Ni     0.494910000000     0.720350000000     0.993020000000     1.02241    
Ni82     Ni     0.495780000000     0.776150000000     0.493350000000     1.00916    
Ni83     Ni     0.744690000000     0.741340000000     0.019200000000     1.00946    
Ni84     Ni     0.745530000000     0.741130000000     0.463470000000     1.01576    
Ni85     Ni     0.991450000000     0.495970000000     0.713960000000     0.996554   
Ni86     Ni     0.991920000000     0.995050000000     0.769740000000     1.00386    
Ni87     Ni     0.522640000000     0.745530000000     0.743530000000     1.01212    
Ni88     Ni     0.966880000000     0.745670000000     0.742710000000     1.01255    
Ni89     Ni     0.741400000000     0.965550000000     0.741320000000     1.01673    
Ni90     Ni     0.741770000000     0.521340000000     0.741470000000     1.01504    
Ni91     Ni     0.765110000000     0.491370000000     0.990650000000     1.01972    
Ni92     Ni     0.709370000000     0.990900000000     0.992070000000     0.996612   
Ni93     Ni     0.494910000000     0.720350000000     0.493020000000     1.02663    
Ni94     Ni     0.495780000000     0.776150000000     0.993350000000     1.00468    
Ni95     Ni     0.744690000000     0.741340000000     0.519200000000     1.00661    
Ni96     Ni     0.745530000000     0.741130000000     0.963470000000     1.01025    
O1       O      0.995610000000     0.041010000000     0.216700000000    -0.436975   
O2       O      0.487490000000     0.450920000000     0.215370000000    -0.436944   
O3       O      0.446410000000     0.999910000000     0.216490000000    -0.438309   
O4       O      0.036480000000     0.491810000000     0.215470000000    -0.434795   
O5       O      0.036770000000     0.999870000000     0.267330000000    -0.43581    
O6       O      0.447010000000     0.490180000000     0.268050000000    -0.438166   
O7       O      0.996790000000     0.450200000000     0.267010000000    -0.44089    
O8       O      0.487150000000     0.040010000000     0.268490000000    -0.434928   
O9       O      0.020470000000     0.200360000000     0.240470000000    -0.434608   
O10      O      0.020620000000     0.290690000000     0.246410000000    -0.434095   
O11      O      0.020080000000     0.242490000000     0.288510000000    -0.43474    
O12      O      0.021290000000     0.248720000000     0.198550000000    -0.43526    
O13      O      0.469570000000     0.240080000000     0.197810000000    -0.433794   
O14      O      0.468410000000     0.251450000000     0.287640000000    -0.431454   
O15      O      0.469020000000     0.290430000000     0.236900000000    -0.425406   
O16      O      0.468630000000     0.200850000000     0.248520000000    -0.426454   
O17      O      0.286420000000     0.467370000000     0.246520000000    -0.417081   
O18      O      0.196390000000     0.467970000000     0.236380000000    -0.438534   
O19      O      0.246560000000     0.467530000000     0.196470000000    -0.427023   
O20      O      0.236220000000     0.467410000000     0.286130000000    -0.433077   
O21      O      0.245200000000     0.019090000000     0.286610000000    -0.427928   
O22      O      0.238240000000     0.019350000000     0.196290000000    -0.436504   
O23      O      0.196840000000     0.019710000000     0.245170000000    -0.425224   
O24      O      0.286730000000     0.019150000000     0.238000000000    -0.436455   
O25      O      0.262440000000     0.035970000000     0.995740000000    -0.442421   
O26      O      0.263740000000     0.446570000000     0.485530000000    -0.441327   
O27      O      0.262110000000     0.996490000000     0.445930000000    -0.443823   
O28      O      0.264230000000     0.486330000000     0.035580000000    -0.437827   
O29      O      0.212470000000     0.994630000000     0.037130000000    -0.43588    
O30      O      0.210500000000     0.487330000000     0.446890000000    -0.421896   
O31      O      0.212280000000     0.445810000000     0.995630000000    -0.431967   
O32      O      0.210510000000     0.036100000000     0.488590000000    -0.43402    
O33      O      0.491330000000     0.221910000000     0.037940000000    -0.442379   
O34      O      0.998480000000     0.222620000000     0.448010000000    -0.444081   
O35      O      0.039780000000     0.221210000000     0.996740000000    -0.441016   
O36      O      0.450250000000     0.223500000000     0.489440000000    -0.444415   
O37      O      0.450630000000     0.275230000000     0.997990000000    -0.43102    
O38      O      0.040770000000     0.273000000000     0.488410000000    -0.424377   
O39      O      0.490770000000     0.274540000000     0.448330000000    -0.423818   
O40      O      0.000610000000     0.273560000000     0.038380000000    -0.408981   
O41      O      0.249250000000     0.196140000000     0.017270000000    -0.417623   
O42      O      0.239530000000     0.286130000000     0.017130000000    -0.419896   
O43      O      0.199680000000     0.236520000000     0.016200000000    -0.4282     
O44      O      0.289890000000     0.247110000000     0.018010000000    -0.42297    
O45      O      0.290740000000     0.237510000000     0.466420000000    -0.419955   
O46      O      0.200700000000     0.245370000000     0.464530000000    -0.424458   
O47      O      0.249180000000     0.286260000000     0.465550000000    -0.432333   
O48      O      0.240590000000     0.195890000000     0.465500000000    -0.427821   
O49      O      0.331720000000     0.177380000000     0.993930000000    -0.0551423  
O50      O      0.332680000000     0.187300000000     0.441430000000    -0.075285   
O51      O      0.150250000000     0.315390000000     0.454280000000    -0.07727    
O52      O      0.162930000000     0.274850000000     0.422860000000    -0.0795178  
O53      O      0.180060000000     0.310740000000     0.518150000000    -0.0739164  
O54      O      0.190930000000     0.344080000000     0.057660000000    -0.0856653  
O55      O      0.309380000000     0.155130000000     0.989930000000    -0.0560242  
O56      O      0.300670000000     0.153040000000     0.042600000000    -0.0803886  
O57      O      0.207430000000     0.418070000000     0.394410000000    -0.0864437  
O58      O      0.171340000000     0.454680000000     0.406890000000    -0.0763142  
O59      O      0.306320000000     0.971710000000     0.169320000000    -0.0923252  
O60      O      0.298650000000     0.930890000000     0.136650000000    -0.0882983  
O61      O      0.430520000000     0.271630000000     0.421900000000    -0.0866856  
O62      O      0.938760000000     0.311660000000     0.388410000000    -0.0902671  
O63      O      0.060320000000     0.268860000000     0.065120000000    -0.0857775  
O64      O      0.552740000000     0.308530000000     0.099200000000    -0.0845175  
O65      O      0.170120000000     0.015580000000     0.305560000000    -0.0869964  
O66      O      0.138750000000     0.057190000000     0.296850000000    -0.092026   
O67      O      0.313110000000     0.470450000000     0.306330000000    -0.0892817  
O68      O      0.346710000000     0.430500000000     0.298200000000    -0.0862879  
O69      O      0.473770000000     0.316150000000     0.176410000000    -0.0872351  
O70      O      0.432730000000     0.348640000000     0.183500000000    -0.0868119  
O71      O      0.472870000000     0.174440000000     0.308850000000    -0.0897483  
O72      O      0.432040000000     0.141690000000     0.301760000000    -0.0898407  
O73      O      0.995610000000     0.041010000000     0.716700000000    -0.437068   
O74      O      0.487490000000     0.450920000000     0.715370000000    -0.437035   
O75      O      0.446410000000     0.999910000000     0.716490000000    -0.438407   
O76      O      0.036480000000     0.491810000000     0.715470000000    -0.434888   
O77      O      0.036770000000     0.999870000000     0.767330000000    -0.435853   
O78      O      0.447010000000     0.490180000000     0.768050000000    -0.438215   
O79      O      0.996790000000     0.450200000000     0.767010000000    -0.440935   
O80      O      0.487150000000     0.040010000000     0.768490000000    -0.434969   
O81      O      0.020470000000     0.200360000000     0.740470000000    -0.434626   
O82      O      0.020620000000     0.290690000000     0.746410000000    -0.434103   
O83      O      0.020080000000     0.242490000000     0.788510000000    -0.434773   
O84      O      0.021290000000     0.248720000000     0.698550000000    -0.435281   
O85      O      0.469570000000     0.240080000000     0.697810000000    -0.433806   
O86      O      0.468410000000     0.251450000000     0.787650000000    -0.431389   
O87      O      0.469020000000     0.290430000000     0.736900000000    -0.425389   
O88      O      0.468630000000     0.200850000000     0.748520000000    -0.426446   
O89      O      0.286420000000     0.467370000000     0.746520000000    -0.417083   
O90      O      0.196390000000     0.467970000000     0.736380000000    -0.438548   
O91      O      0.246560000000     0.467530000000     0.696470000000    -0.427047   
O92      O      0.236220000000     0.467410000000     0.786130000000    -0.433075   
O93      O      0.245200000000     0.019090000000     0.786610000000    -0.427922   
O94      O      0.238240000000     0.019350000000     0.696290000000    -0.436545   
O95      O      0.196840000000     0.019710000000     0.745170000000    -0.42523    
O96      O      0.286730000000     0.019150000000     0.738000000000    -0.436466   
O97      O      0.262440000000     0.035970000000     0.495740000000    -0.441383   
O98      O      0.263740000000     0.446570000000     0.985530000000    -0.44157    
O99      O      0.262110000000     0.996490000000     0.945930000000    -0.443195   
O100     O      0.264230000000     0.486330000000     0.535580000000    -0.441341   
O101     O      0.212470000000     0.994630000000     0.537130000000    -0.439387   
O102     O      0.210500000000     0.487330000000     0.946890000000    -0.42124    
O103     O      0.212280000000     0.445810000000     0.495630000000    -0.430944   
O104     O      0.210510000000     0.036100000000     0.988590000000    -0.434266   
O105     O      0.491330000000     0.221910000000     0.537950000000    -0.445922   
O106     O      0.998480000000     0.222620000000     0.948010000000    -0.44347    
O107     O      0.039780000000     0.221210000000     0.496740000000    -0.439968   
O108     O      0.450250000000     0.223500000000     0.989440000000    -0.44463    
O109     O      0.450630000000     0.275230000000     0.497990000000    -0.429979   
O110     O      0.040770000000     0.273000000000     0.988410000000    -0.424713   
O111     O      0.490770000000     0.274540000000     0.948330000000    -0.423187   
O112     O      0.000610000000     0.273560000000     0.538380000000    -0.412451   
O113     O      0.249250000000     0.196140000000     0.517270000000    -0.421678   
O114     O      0.239530000000     0.286130000000     0.517130000000    -0.423738   
O115     O      0.199680000000     0.236520000000     0.516200000000    -0.432146   
O116     O      0.289890000000     0.247110000000     0.518010000000    -0.427031   
O117     O      0.290740000000     0.237510000000     0.966420000000    -0.418524   
O118     O      0.200700000000     0.245370000000     0.964530000000    -0.422989   
O119     O      0.249180000000     0.286260000000     0.965550000000    -0.430948   
O120     O      0.240590000000     0.195890000000     0.965500000000    -0.426367   
O121     O      0.331720000000     0.177380000000     0.493930000000    -0.0540057  
O122     O      0.332680000000     0.187300000000     0.941430000000    -0.0754695  
O123     O      0.150250000000     0.315390000000     0.954280000000    -0.0784605  
O124     O      0.162930000000     0.274850000000     0.922860000000    -0.0796418  
O125     O      0.180060000000     0.310740000000     0.018150000000    -0.071706   
O126     O      0.190930000000     0.344080000000     0.557660000000    -0.0862168  
O127     O      0.309380000000     0.155130000000     0.489930000000    -0.0532016  
O128     O      0.300670000000     0.153040000000     0.542600000000    -0.0814781  
O129     O      0.207430000000     0.418070000000     0.894410000000    -0.0866404  
O130     O      0.171340000000     0.454680000000     0.906900000000    -0.0767027  
O131     O      0.306320000000     0.971710000000     0.669320000000    -0.0924948  
O132     O      0.298650000000     0.930890000000     0.636650000000    -0.0886954  
O133     O      0.430520000000     0.271630000000     0.921900000000    -0.0869753  
O134     O      0.938760000000     0.311660000000     0.888410000000    -0.0905992  
O135     O      0.060320000000     0.268860000000     0.565120000000    -0.0869598  
O136     O      0.552740000000     0.308530000000     0.599200000000    -0.0851556  
O137     O      0.170120000000     0.015580000000     0.805560000000    -0.0870348  
O138     O      0.138750000000     0.057190000000     0.796850000000    -0.0921171  
O139     O      0.313110000000     0.470450000000     0.806330000000    -0.089345   
O140     O      0.346710000000     0.430500000000     0.798200000000    -0.0863822  
O141     O      0.473770000000     0.316150000000     0.676410000000    -0.0874048  
O142     O      0.432730000000     0.348640000000     0.683500000000    -0.0870513  
O143     O      0.472870000000     0.174440000000     0.808840000000    -0.0898081  
O144     O      0.432040000000     0.141690000000     0.801760000000    -0.0899417  
O145     O      0.995610000000     0.541010000000     0.216700000000    -0.440532   
O146     O      0.487490000000     0.950910000000     0.215370000000    -0.436284   
O147     O      0.446410000000     0.499900000000     0.216490000000    -0.43737    
O148     O      0.036480000000     0.991810000000     0.215470000000    -0.43503    
O149     O      0.036770000000     0.499870000000     0.267330000000    -0.434772   
O150     O      0.447010000000     0.990180000000     0.268050000000    -0.438382   
O151     O      0.996790000000     0.950200000000     0.267010000000    -0.440316   
O152     O      0.487150000000     0.540010000000     0.268490000000    -0.438447   
O153     O      0.020470000000     0.700360000000     0.240470000000    -0.434642   
O154     O      0.020620000000     0.790690000000     0.246410000000    -0.434097   
O155     O      0.020080000000     0.742490000000     0.288510000000    -0.434747   
O156     O      0.021290000000     0.748720000000     0.198550000000    -0.435272   
O157     O      0.469570000000     0.740080000000     0.197810000000    -0.433817   
O158     O      0.468410000000     0.751450000000     0.287640000000    -0.431459   
O159     O      0.469020000000     0.790430000000     0.236900000000    -0.425402   
O160     O      0.468630000000     0.700850000000     0.248520000000    -0.426484   
O161     O      0.286420000000     0.967370000000     0.246520000000    -0.415573   
O162     O      0.196390000000     0.967970000000     0.236380000000    -0.437216   
O163     O      0.246560000000     0.967530000000     0.196470000000    -0.425559   
O164     O      0.236220000000     0.967410000000     0.286130000000    -0.431667   
O165     O      0.245200000000     0.519090000000     0.286610000000    -0.431812   
O166     O      0.238240000000     0.519350000000     0.196290000000    -0.440474   
O167     O      0.196840000000     0.519710000000     0.245170000000    -0.429005   
O168     O      0.286730000000     0.519150000000     0.238000000000    -0.440469   
O169     O      0.262440000000     0.535970000000     0.995740000000    -0.446112   
O170     O      0.263740000000     0.946570000000     0.485530000000    -0.440815   
O171     O      0.262110000000     0.496490000000     0.445930000000    -0.442898   
O172     O      0.264230000000     0.986330000000     0.035580000000    -0.438045   
O173     O      0.212470000000     0.494620000000     0.037130000000    -0.434927   
O174     O      0.210500000000     0.987330000000     0.446890000000    -0.422116   
O175     O      0.212280000000     0.945810000000     0.995630000000    -0.431363   
O176     O      0.210510000000     0.536100000000     0.488590000000    -0.437551   
O177     O      0.491330000000     0.721910000000     0.037940000000    -0.442393   
O178     O      0.998480000000     0.722620000000     0.448010000000    -0.444154   
O179     O      0.039780000000     0.721200000000     0.996740000000    -0.440819   
O180     O      0.450250000000     0.723500000000     0.489440000000    -0.444474   
O181     O      0.450630000000     0.775230000000     0.997990000000    -0.431061   
O182     O      0.040770000000     0.773000000000     0.488410000000    -0.424449   
O183     O      0.490770000000     0.774540000000     0.448330000000    -0.423852   
O184     O      0.000610000000     0.773570000000     0.038380000000    -0.408827   
O185     O      0.249250000000     0.696140000000     0.017270000000    -0.417576   
O186     O      0.239530000000     0.786130000000     0.017130000000    -0.419881   
O187     O      0.199680000000     0.736530000000     0.016200000000    -0.428267   
O188     O      0.289890000000     0.747110000000     0.018010000000    -0.422961   
O189     O      0.290740000000     0.737500000000     0.466420000000    -0.419898   
O190     O      0.200700000000     0.745370000000     0.464530000000    -0.424458   
O191     O      0.249180000000     0.786260000000     0.465550000000    -0.432334   
O192     O      0.240590000000     0.695890000000     0.465500000000    -0.427782   
O193     O      0.331720000000     0.677380000000     0.993930000000    -0.0552651  
O194     O      0.332680000000     0.687300000000     0.441430000000    -0.0754754  
O195     O      0.150250000000     0.815390000000     0.454280000000    -0.0773559  
O196     O      0.162930000000     0.774850000000     0.422860000000    -0.079565   
O197     O      0.180060000000     0.810740000000     0.518150000000    -0.073927   
O198     O      0.190930000000     0.844080000000     0.057660000000    -0.085784   
O199     O      0.309380000000     0.655130000000     0.989930000000    -0.0562288  
O200     O      0.300670000000     0.653040000000     0.042600000000    -0.0806904  
O201     O      0.207430000000     0.918070000000     0.394410000000    -0.086586   
O202     O      0.171340000000     0.954680000000     0.406890000000    -0.0771769  
O203     O      0.306320000000     0.471710000000     0.169320000000    -0.0911027  
O204     O      0.298650000000     0.430890000000     0.136650000000    -0.0879961  
O205     O      0.430520000000     0.771630000000     0.421900000000    -0.0867408  
O206     O      0.938760000000     0.811660000000     0.388410000000    -0.0904112  
O207     O      0.060320000000     0.768860000000     0.065120000000    -0.0858337  
O208     O      0.552740000000     0.808540000000     0.099200000000    -0.0846506  
O209     O      0.170120000000     0.515580000000     0.305560000000    -0.0892482  
O210     O      0.138750000000     0.557190000000     0.296850000000    -0.092633   
O211     O      0.313110000000     0.970450000000     0.306330000000    -0.0903333  
O212     O      0.346710000000     0.930490000000     0.298200000000    -0.0865449  
O213     O      0.473770000000     0.816150000000     0.176410000000    -0.087281   
O214     O      0.432730000000     0.848640000000     0.183500000000    -0.0869401  
O215     O      0.472870000000     0.674450000000     0.308850000000    -0.0899071  
O216     O      0.432040000000     0.641690000000     0.301760000000    -0.0902633  
O217     O      0.995610000000     0.541010000000     0.716700000000    -0.440636   
O218     O      0.487490000000     0.950910000000     0.715370000000    -0.436373   
O219     O      0.446410000000     0.499900000000     0.716490000000    -0.437465   
O220     O      0.036480000000     0.991810000000     0.715470000000    -0.435123   
O221     O      0.036770000000     0.499870000000     0.767330000000    -0.434813   
O222     O      0.447010000000     0.990180000000     0.768050000000    -0.438431   
O223     O      0.996790000000     0.950200000000     0.767010000000    -0.44036    
O224     O      0.487150000000     0.540010000000     0.768490000000    -0.438496   
O225     O      0.020470000000     0.700360000000     0.740470000000    -0.43466    
O226     O      0.020620000000     0.790690000000     0.746410000000    -0.434105   
O227     O      0.020080000000     0.742490000000     0.788510000000    -0.434781   
O228     O      0.021290000000     0.748720000000     0.698550000000    -0.435293   
O229     O      0.469570000000     0.740080000000     0.697810000000    -0.43383    
O230     O      0.468410000000     0.751450000000     0.787650000000    -0.431394   
O231     O      0.469020000000     0.790430000000     0.736900000000    -0.425385   
O232     O      0.468630000000     0.700850000000     0.748520000000    -0.426477   
O233     O      0.286420000000     0.967370000000     0.746520000000    -0.415572   
O234     O      0.196390000000     0.967970000000     0.736380000000    -0.437227   
O235     O      0.246560000000     0.967530000000     0.696470000000    -0.42558    
O236     O      0.236220000000     0.967410000000     0.786130000000    -0.431662   
O237     O      0.245200000000     0.519090000000     0.786610000000    -0.431813   
O238     O      0.238240000000     0.519350000000     0.696290000000    -0.440528   
O239     O      0.196840000000     0.519710000000     0.745170000000    -0.429021   
O240     O      0.286730000000     0.519150000000     0.738000000000    -0.440491   
O241     O      0.262440000000     0.535970000000     0.495740000000    -0.44507    
O242     O      0.263740000000     0.946570000000     0.985530000000    -0.441058   
O243     O      0.262110000000     0.496490000000     0.945930000000    -0.442269   
O244     O      0.264230000000     0.986330000000     0.535580000000    -0.44156    
O245     O      0.212470000000     0.494620000000     0.537130000000    -0.438429   
O246     O      0.210500000000     0.987330000000     0.946890000000    -0.42146    
O247     O      0.212280000000     0.945810000000     0.495630000000    -0.430339   
O248     O      0.210510000000     0.536100000000     0.988590000000    -0.437798   
O249     O      0.491330000000     0.721910000000     0.537950000000    -0.445946   
O250     O      0.998480000000     0.722620000000     0.948010000000    -0.443542   
O251     O      0.039780000000     0.721200000000     0.496740000000    -0.439767   
O252     O      0.450250000000     0.723500000000     0.989440000000    -0.444689   
O253     O      0.450630000000     0.775230000000     0.497990000000    -0.430019   
O254     O      0.040770000000     0.773000000000     0.988410000000    -0.424785   
O255     O      0.490770000000     0.774540000000     0.948330000000    -0.42322    
O256     O      0.000610000000     0.773570000000     0.538380000000    -0.412303   
O257     O      0.249250000000     0.696140000000     0.517270000000    -0.421643   
O258     O      0.239530000000     0.786130000000     0.517130000000    -0.42373    
O259     O      0.199680000000     0.736530000000     0.516200000000    -0.432224   
O260     O      0.289890000000     0.747110000000     0.518010000000    -0.427032   
O261     O      0.290740000000     0.737500000000     0.966420000000    -0.418464   
O262     O      0.200700000000     0.745370000000     0.964530000000    -0.422986   
O263     O      0.249180000000     0.786260000000     0.965550000000    -0.430946   
O264     O      0.240590000000     0.695890000000     0.965500000000    -0.426326   
O265     O      0.331720000000     0.677380000000     0.493930000000    -0.054126   
O266     O      0.332680000000     0.687300000000     0.941430000000    -0.0756608  
O267     O      0.150250000000     0.815390000000     0.954280000000    -0.0785476  
O268     O      0.162930000000     0.774850000000     0.922860000000    -0.0796893  
O269     O      0.180060000000     0.810740000000     0.018150000000    -0.0717119  
O270     O      0.190930000000     0.844080000000     0.557660000000    -0.0863368  
O271     O      0.309380000000     0.655130000000     0.489930000000    -0.0533955  
O272     O      0.300670000000     0.653040000000     0.542600000000    -0.0817853  
O273     O      0.207430000000     0.918070000000     0.894410000000    -0.0867829  
O274     O      0.171340000000     0.954680000000     0.906900000000    -0.0775651  
O275     O      0.306320000000     0.471710000000     0.669320000000    -0.091269   
O276     O      0.298650000000     0.430890000000     0.636650000000    -0.0883919  
O277     O      0.430520000000     0.771630000000     0.921900000000    -0.0870309  
O278     O      0.938760000000     0.811660000000     0.888410000000    -0.0907432  
O279     O      0.060320000000     0.768860000000     0.565120000000    -0.087019   
O280     O      0.552740000000     0.808540000000     0.599200000000    -0.0852902  
O281     O      0.170120000000     0.515580000000     0.805560000000    -0.0892915  
O282     O      0.138750000000     0.557190000000     0.796850000000    -0.0927254  
O283     O      0.313110000000     0.970450000000     0.806330000000    -0.0903974  
O284     O      0.346710000000     0.930490000000     0.798200000000    -0.0866392  
O285     O      0.473770000000     0.816150000000     0.676410000000    -0.087451   
O286     O      0.432730000000     0.848640000000     0.683500000000    -0.0871802  
O287     O      0.472870000000     0.674450000000     0.808840000000    -0.0899672  
O288     O      0.432040000000     0.641690000000     0.801760000000    -0.0903654  
O289     O      0.495610000000     0.041010000000     0.216700000000    -0.43562    
O290     O      0.987490000000     0.450920000000     0.215370000000    -0.437261   
O291     O      0.946410000000     0.999910000000     0.216490000000    -0.437536   
O292     O      0.536480000000     0.491810000000     0.215470000000    -0.439571   
O293     O      0.536770000000     0.999870000000     0.267330000000    -0.440699   
O294     O      0.947010000000     0.490180000000     0.268050000000    -0.437486   
O295     O      0.496790000000     0.450200000000     0.267010000000    -0.439537   
O296     O      0.987150000000     0.040010000000     0.268490000000    -0.435242   
O297     O      0.520470000000     0.200360000000     0.240470000000    -0.439897   
O298     O      0.520620000000     0.290690000000     0.246410000000    -0.439428   
O299     O      0.520080000000     0.242490000000     0.288510000000    -0.440096   
O300     O      0.521290000000     0.248720000000     0.198550000000    -0.440561   
O301     O      0.969570000000     0.240080000000     0.197810000000    -0.431931   
O302     O      0.968410000000     0.251450000000     0.287640000000    -0.429566   
O303     O      0.969020000000     0.290430000000     0.236900000000    -0.423435   
O304     O      0.968640000000     0.200850000000     0.248520000000    -0.424683   
O305     O      0.786420000000     0.467370000000     0.246520000000    -0.41708    
O306     O      0.696390000000     0.467970000000     0.236380000000    -0.438587   
O307     O      0.746560000000     0.467530000000     0.196470000000    -0.427034   
O308     O      0.736210000000     0.467410000000     0.286130000000    -0.433053   
O309     O      0.745200000000     0.019090000000     0.286610000000    -0.427919   
O310     O      0.738240000000     0.019350000000     0.196290000000    -0.436528   
O311     O      0.696840000000     0.019710000000     0.245170000000    -0.425248   
O312     O      0.786730000000     0.019150000000     0.238000000000    -0.436458   
O313     O      0.762440000000     0.035970000000     0.995740000000    -0.442536   
O314     O      0.763740000000     0.446570000000     0.485530000000    -0.441391   
O315     O      0.762110000000     0.996490000000     0.445930000000    -0.443881   
O316     O      0.764230000000     0.486330000000     0.035580000000    -0.437891   
O317     O      0.712470000000     0.994630000000     0.037130000000    -0.436016   
O318     O      0.710500000000     0.487330000000     0.446890000000    -0.421996   
O319     O      0.712280000000     0.445810000000     0.995630000000    -0.432087   
O320     O      0.710520000000     0.036100000000     0.488590000000    -0.43433    
O321     O      0.991330000000     0.221910000000     0.037940000000    -0.441069   
O322     O      0.498480000000     0.222620000000     0.448010000000    -0.442953   
O323     O      0.539780000000     0.221210000000     0.996740000000    -0.44571    
O324     O      0.950250000000     0.223500000000     0.489440000000    -0.4435     
O325     O      0.950630000000     0.275230000000     0.997990000000    -0.429787   
O326     O      0.540770000000     0.273000000000     0.488410000000    -0.429426   
O327     O      0.990770000000     0.274540000000     0.448330000000    -0.423205   
O328     O      0.500610000000     0.273560000000     0.038380000000    -0.418929   
O329     O      0.749260000000     0.196140000000     0.017270000000    -0.417607   
O330     O      0.739530000000     0.286130000000     0.017130000000    -0.419899   
O331     O      0.699680000000     0.236520000000     0.016200000000    -0.428232   
O332     O      0.789890000000     0.247110000000     0.018010000000    -0.422935   
O333     O      0.790730000000     0.237510000000     0.466420000000    -0.420022   
O334     O      0.700700000000     0.245370000000     0.464530000000    -0.424521   
O335     O      0.749180000000     0.286260000000     0.465550000000    -0.432333   
O336     O      0.740590000000     0.195890000000     0.465500000000    -0.427847   
O337     O      0.831720000000     0.177380000000     0.993930000000    -0.055234   
O338     O      0.832680000000     0.187300000000     0.441430000000    -0.0753938  
O339     O      0.650250000000     0.315390000000     0.454280000000    -0.077667   
O340     O      0.662930000000     0.274850000000     0.422860000000    -0.079792   
O341     O      0.680060000000     0.310740000000     0.518150000000    -0.0740545  
O342     O      0.690930000000     0.344080000000     0.057660000000    -0.0858834  
O343     O      0.809380000000     0.155130000000     0.989930000000    -0.0560905  
O344     O      0.800670000000     0.153040000000     0.042600000000    -0.0805024  
O345     O      0.707430000000     0.418070000000     0.394410000000    -0.0866141  
O346     O      0.671340000000     0.454680000000     0.406890000000    -0.0768483  
O347     O      0.806320000000     0.971710000000     0.169320000000    -0.0924024  
O348     O      0.798650000000     0.930890000000     0.136650000000    -0.0884196  
O349     O      0.930520000000     0.271630000000     0.421900000000    -0.0867737  
O350     O      0.438760000000     0.311660000000     0.388410000000    -0.089469   
O351     O      0.560320000000     0.268860000000     0.065120000000    -0.0868735  
O352     O      0.052740000000     0.308530000000     0.099200000000    -0.0832061  
O353     O      0.670120000000     0.015580000000     0.305560000000    -0.087195   
O354     O      0.638750000000     0.057190000000     0.296850000000    -0.0925869  
O355     O      0.813110000000     0.470450000000     0.306330000000    -0.089356   
O356     O      0.846710000000     0.430500000000     0.298200000000    -0.0864719  
O357     O      0.973770000000     0.316150000000     0.176410000000    -0.0888641  
O358     O      0.932730000000     0.348640000000     0.183500000000    -0.0872436  
O359     O      0.972870000000     0.174440000000     0.308850000000    -0.0912893  
O360     O      0.932040000000     0.141690000000     0.301760000000    -0.0902462  
O361     O      0.495610000000     0.041010000000     0.716700000000    -0.435711   
O362     O      0.987490000000     0.450920000000     0.715370000000    -0.437352   
O363     O      0.946410000000     0.999910000000     0.716490000000    -0.437633   
O364     O      0.536480000000     0.491810000000     0.715470000000    -0.439671   
O365     O      0.536770000000     0.999870000000     0.767330000000    -0.440746   
O366     O      0.947010000000     0.490180000000     0.768050000000    -0.437534   
O367     O      0.496790000000     0.450200000000     0.767010000000    -0.439582   
O368     O      0.987150000000     0.040010000000     0.768490000000    -0.435283   
O369     O      0.520470000000     0.200360000000     0.740470000000    -0.439921   
O370     O      0.520620000000     0.290690000000     0.746410000000    -0.439442   
O371     O      0.520080000000     0.242490000000     0.788510000000    -0.440131   
O372     O      0.521290000000     0.248720000000     0.698550000000    -0.440592   
O373     O      0.969570000000     0.240080000000     0.697810000000    -0.431941   
O374     O      0.968410000000     0.251450000000     0.787650000000    -0.4295     
O375     O      0.969020000000     0.290430000000     0.736900000000    -0.423416   
O376     O      0.968640000000     0.200850000000     0.748520000000    -0.424673   
O377     O      0.786420000000     0.467370000000     0.746520000000    -0.417082   
O378     O      0.696390000000     0.467970000000     0.736380000000    -0.438601   
O379     O      0.746560000000     0.467530000000     0.696470000000    -0.427059   
O380     O      0.736210000000     0.467410000000     0.786130000000    -0.433051   
O381     O      0.745200000000     0.019090000000     0.786610000000    -0.427913   
O382     O      0.738240000000     0.019350000000     0.696290000000    -0.436569   
O383     O      0.696840000000     0.019710000000     0.745170000000    -0.425254   
O384     O      0.786730000000     0.019150000000     0.738000000000    -0.436469   
O385     O      0.762440000000     0.035970000000     0.495740000000    -0.441497   
O386     O      0.763740000000     0.446570000000     0.985530000000    -0.441634   
O387     O      0.762110000000     0.996490000000     0.945930000000    -0.443252   
O388     O      0.764230000000     0.486330000000     0.535580000000    -0.441408   
O389     O      0.712470000000     0.994630000000     0.537130000000    -0.439529   
O390     O      0.710500000000     0.487330000000     0.946890000000    -0.421339   
O391     O      0.712280000000     0.445810000000     0.495630000000    -0.431062   
O392     O      0.710520000000     0.036100000000     0.988590000000    -0.434576   
O393     O      0.991330000000     0.221910000000     0.537950000000    -0.444599   
O394     O      0.498480000000     0.222620000000     0.948010000000    -0.442343   
O395     O      0.539780000000     0.221210000000     0.496740000000    -0.444668   
O396     O      0.950250000000     0.223500000000     0.989440000000    -0.443717   
O397     O      0.950630000000     0.275230000000     0.497990000000    -0.428744   
O398     O      0.540770000000     0.273000000000     0.988410000000    -0.429752   
O399     O      0.990770000000     0.274540000000     0.948330000000    -0.422579   
O400     O      0.500610000000     0.273560000000     0.538380000000    -0.422449   
O401     O      0.749260000000     0.196140000000     0.517270000000    -0.421667   
O402     O      0.739530000000     0.286130000000     0.517130000000    -0.423747   
O403     O      0.699680000000     0.236520000000     0.516200000000    -0.432187   
O404     O      0.789890000000     0.247110000000     0.518010000000    -0.426998   
O405     O      0.790730000000     0.237510000000     0.966420000000    -0.418591   
O406     O      0.700700000000     0.245370000000     0.964530000000    -0.423049   
O407     O      0.749180000000     0.286260000000     0.965550000000    -0.430947   
O408     O      0.740590000000     0.195890000000     0.965500000000    -0.426392   
O409     O      0.831720000000     0.177380000000     0.493930000000    -0.0540988  
O410     O      0.832680000000     0.187300000000     0.941430000000    -0.0755779  
O411     O      0.650250000000     0.315390000000     0.954280000000    -0.0788594  
O412     O      0.662930000000     0.274850000000     0.922860000000    -0.0799162  
O413     O      0.680060000000     0.310740000000     0.018150000000    -0.0718371  
O414     O      0.690930000000     0.344080000000     0.557660000000    -0.0864371  
O415     O      0.809380000000     0.155130000000     0.489930000000    -0.0532668  
O416     O      0.800670000000     0.153040000000     0.542600000000    -0.0815927  
O417     O      0.707430000000     0.418070000000     0.894410000000    -0.086811   
O418     O      0.671340000000     0.454680000000     0.906900000000    -0.0772371  
O419     O      0.806320000000     0.971710000000     0.669320000000    -0.0925723  
O420     O      0.798650000000     0.930890000000     0.636650000000    -0.0888173  
O421     O      0.930520000000     0.271630000000     0.921900000000    -0.0870633  
O422     O      0.438760000000     0.311660000000     0.888410000000    -0.0898024  
O423     O      0.560320000000     0.268860000000     0.565120000000    -0.0880645  
O424     O      0.052740000000     0.308530000000     0.599200000000    -0.083838   
O425     O      0.670120000000     0.015580000000     0.805560000000    -0.0872335  
O426     O      0.638750000000     0.057190000000     0.796850000000    -0.0926784  
O427     O      0.813110000000     0.470450000000     0.806330000000    -0.089419   
O428     O      0.846710000000     0.430500000000     0.798200000000    -0.0865658  
O429     O      0.973770000000     0.316150000000     0.676410000000    -0.0890369  
O430     O      0.932730000000     0.348640000000     0.683500000000    -0.087484   
O431     O      0.972870000000     0.174440000000     0.808840000000    -0.0913481  
O432     O      0.932040000000     0.141690000000     0.801760000000    -0.0903468  
O433     O      0.495610000000     0.541010000000     0.216700000000    -0.439173   
O434     O      0.987490000000     0.950910000000     0.215370000000    -0.436601   
O435     O      0.946410000000     0.499900000000     0.216490000000    -0.436595   
O436     O      0.536480000000     0.991810000000     0.215470000000    -0.439802   
O437     O      0.536770000000     0.499870000000     0.267330000000    -0.439661   
O438     O      0.947010000000     0.990180000000     0.268050000000    -0.437702   
O439     O      0.496790000000     0.950200000000     0.267010000000    -0.438963   
O440     O      0.987150000000     0.540010000000     0.268490000000    -0.438762   
O441     O      0.520470000000     0.700360000000     0.240470000000    -0.439945   
O442     O      0.520620000000     0.790690000000     0.246410000000    -0.439436   
O443     O      0.520080000000     0.742490000000     0.288510000000    -0.440114   
O444     O      0.521290000000     0.748720000000     0.198550000000    -0.440582   
O445     O      0.969570000000     0.740080000000     0.197810000000    -0.431952   
O446     O      0.968410000000     0.751450000000     0.287640000000    -0.429568   
O447     O      0.969020000000     0.790430000000     0.236900000000    -0.423428   
O448     O      0.968640000000     0.700850000000     0.248520000000    -0.424709   
O449     O      0.786420000000     0.967370000000     0.246520000000    -0.41557    
O450     O      0.696390000000     0.967970000000     0.236380000000    -0.437266   
O451     O      0.746560000000     0.967530000000     0.196470000000    -0.425567   
O452     O      0.736210000000     0.967410000000     0.286130000000    -0.431641   
O453     O      0.745200000000     0.519090000000     0.286610000000    -0.431812   
O454     O      0.738240000000     0.519350000000     0.196290000000    -0.440508   
O455     O      0.696840000000     0.519710000000     0.245170000000    -0.429042   
O456     O      0.786730000000     0.519150000000     0.238000000000    -0.440479   
O457     O      0.762440000000     0.535970000000     0.995740000000    -0.446236   
O458     O      0.763740000000     0.946570000000     0.485530000000    -0.440878   
O459     O      0.762110000000     0.496490000000     0.445930000000    -0.442955   
O460     O      0.764230000000     0.986330000000     0.035580000000    -0.438108   
O461     O      0.712470000000     0.494620000000     0.037130000000    -0.43506    
O462     O      0.710500000000     0.987330000000     0.446890000000    -0.422215   
O463     O      0.712280000000     0.945810000000     0.995630000000    -0.431481   
O464     O      0.710520000000     0.536100000000     0.488590000000    -0.437874   
O465     O      0.991330000000     0.721910000000     0.037940000000    -0.441083   
O466     O      0.498480000000     0.722620000000     0.448010000000    -0.443025   
O467     O      0.539780000000     0.721200000000     0.996740000000    -0.445522   
O468     O      0.950250000000     0.723500000000     0.489440000000    -0.443557   
O469     O      0.950630000000     0.775230000000     0.997990000000    -0.429827   
O470     O      0.540770000000     0.773000000000     0.488410000000    -0.429505   
O471     O      0.990770000000     0.774540000000     0.448330000000    -0.423238   
O472     O      0.500610000000     0.773570000000     0.038380000000    -0.418786   
O473     O      0.749260000000     0.696140000000     0.017270000000    -0.41756    
O474     O      0.739530000000     0.786130000000     0.017130000000    -0.419884   
O475     O      0.699680000000     0.736530000000     0.016200000000    -0.428299   
O476     O      0.789890000000     0.747110000000     0.018010000000    -0.422926   
O477     O      0.790730000000     0.737500000000     0.466420000000    -0.419965   
O478     O      0.700700000000     0.745370000000     0.464530000000    -0.424521   
O479     O      0.749180000000     0.786260000000     0.465550000000    -0.432334   
O480     O      0.740590000000     0.695890000000     0.465500000000    -0.427808   
O481     O      0.831720000000     0.677380000000     0.993930000000    -0.0553573  
O482     O      0.832680000000     0.687300000000     0.441430000000    -0.0755847  
O483     O      0.650250000000     0.815390000000     0.454280000000    -0.0777534  
O484     O      0.662930000000     0.774850000000     0.422860000000    -0.0798398  
O485     O      0.680060000000     0.810740000000     0.518150000000    -0.0740653  
O486     O      0.690930000000     0.844080000000     0.057660000000    -0.0860026  
O487     O      0.809380000000     0.655130000000     0.989930000000    -0.0562956  
O488     O      0.800670000000     0.653040000000     0.042600000000    -0.0808051  
O489     O      0.707430000000     0.918070000000     0.394410000000    -0.0867568  
O490     O      0.671340000000     0.954680000000     0.406890000000    -0.077713   
O491     O      0.806320000000     0.471710000000     0.169320000000    -0.091179   
O492     O      0.798650000000     0.430890000000     0.136650000000    -0.0881173  
O493     O      0.930520000000     0.771630000000     0.421900000000    -0.0868289  
O494     O      0.438760000000     0.811660000000     0.388410000000    -0.0896133  
O495     O      0.560320000000     0.768860000000     0.065120000000    -0.0869318  
O496     O      0.052740000000     0.808540000000     0.099200000000    -0.0833374  
O497     O      0.670120000000     0.515580000000     0.305560000000    -0.0894561  
O498     O      0.638750000000     0.557190000000     0.296850000000    -0.0931985  
O499     O      0.813110000000     0.970450000000     0.306330000000    -0.0904086  
O500     O      0.846710000000     0.930490000000     0.298200000000    -0.0867288  
O501     O      0.973770000000     0.816150000000     0.176410000000    -0.0889111  
O502     O      0.932730000000     0.848640000000     0.183500000000    -0.0873718  
O503     O      0.972870000000     0.674450000000     0.308850000000    -0.0914513  
O504     O      0.932040000000     0.641690000000     0.301760000000    -0.0906702  
O505     O      0.495610000000     0.541010000000     0.716700000000    -0.439275   
O506     O      0.987490000000     0.950910000000     0.715370000000    -0.436691   
O507     O      0.946410000000     0.499900000000     0.716490000000    -0.43669    
O508     O      0.536480000000     0.991810000000     0.715470000000    -0.439903   
O509     O      0.536770000000     0.499870000000     0.767330000000    -0.439707   
O510     O      0.947010000000     0.990180000000     0.768050000000    -0.437751   
O511     O      0.496790000000     0.950200000000     0.767010000000    -0.439007   
O512     O      0.987150000000     0.540010000000     0.768490000000    -0.438812   
O513     O      0.520470000000     0.700360000000     0.740470000000    -0.439969   
O514     O      0.520620000000     0.790690000000     0.746410000000    -0.43945    
O515     O      0.520080000000     0.742490000000     0.788510000000    -0.440149   
O516     O      0.521290000000     0.748720000000     0.698550000000    -0.440613   
O517     O      0.969570000000     0.740080000000     0.697810000000    -0.431962   
O518     O      0.968410000000     0.751450000000     0.787650000000    -0.429502   
O519     O      0.969020000000     0.790430000000     0.736900000000    -0.423409   
O520     O      0.968640000000     0.700850000000     0.748520000000    -0.4247     
O521     O      0.786420000000     0.967370000000     0.746520000000    -0.415568   
O522     O      0.696390000000     0.967970000000     0.736380000000    -0.437277   
O523     O      0.746560000000     0.967530000000     0.696470000000    -0.425588   
O524     O      0.736210000000     0.967410000000     0.786130000000    -0.431636   
O525     O      0.745200000000     0.519090000000     0.786610000000    -0.431814   
O526     O      0.738240000000     0.519350000000     0.696290000000    -0.440563   
O527     O      0.696840000000     0.519710000000     0.745170000000    -0.429058   
O528     O      0.786730000000     0.519150000000     0.738000000000    -0.440501   
O529     O      0.762440000000     0.535970000000     0.495740000000    -0.445194   
O530     O      0.763740000000     0.946570000000     0.985530000000    -0.44112    
O531     O      0.762110000000     0.496490000000     0.945930000000    -0.442326   
O532     O      0.764230000000     0.986330000000     0.535580000000    -0.441627   
O533     O      0.712470000000     0.494620000000     0.537130000000    -0.43857    
O534     O      0.710500000000     0.987330000000     0.946890000000    -0.421558   
O535     O      0.712280000000     0.945810000000     0.495630000000    -0.430456   
O536     O      0.710520000000     0.536100000000     0.988590000000    -0.43812    
O537     O      0.991330000000     0.721910000000     0.537950000000    -0.444624   
O538     O      0.498480000000     0.722620000000     0.948010000000    -0.442412   
O539     O      0.539780000000     0.721200000000     0.496740000000    -0.444478   
O540     O      0.950250000000     0.723500000000     0.989440000000    -0.443774   
O541     O      0.950630000000     0.775230000000     0.497990000000    -0.428782   
O542     O      0.540770000000     0.773000000000     0.988410000000    -0.429831   
O543     O      0.990770000000     0.774540000000     0.948330000000    -0.422611   
O544     O      0.500610000000     0.773570000000     0.538380000000    -0.422314   
O545     O      0.749260000000     0.696140000000     0.517270000000    -0.421632   
O546     O      0.739530000000     0.786130000000     0.517130000000    -0.423739   
O547     O      0.699680000000     0.736530000000     0.516200000000    -0.432265   
O548     O      0.789890000000     0.747110000000     0.518010000000    -0.427      
O549     O      0.790730000000     0.737500000000     0.966420000000    -0.418531   
O550     O      0.700700000000     0.745370000000     0.964530000000    -0.423046   
O551     O      0.749180000000     0.786260000000     0.965550000000    -0.430945   
O552     O      0.740590000000     0.695890000000     0.965500000000    -0.426351   
O553     O      0.831720000000     0.677380000000     0.493930000000    -0.0542195  
O554     O      0.832680000000     0.687300000000     0.941430000000    -0.0757697  
O555     O      0.650250000000     0.815390000000     0.954280000000    -0.078947   
O556     O      0.662930000000     0.774850000000     0.922860000000    -0.0799643  
O557     O      0.680060000000     0.810740000000     0.018150000000    -0.0718431  
O558     O      0.690930000000     0.844080000000     0.557660000000    -0.0865575  
O559     O      0.809380000000     0.655130000000     0.489930000000    -0.0534611  
O560     O      0.800670000000     0.653040000000     0.542600000000    -0.0819008  
O561     O      0.707430000000     0.918070000000     0.894410000000    -0.086954   
O562     O      0.671340000000     0.954680000000     0.906900000000    -0.0781015  
O563     O      0.806320000000     0.471710000000     0.669320000000    -0.0913456  
O564     O      0.798650000000     0.430890000000     0.636650000000    -0.0885138  
O565     O      0.930520000000     0.771630000000     0.921900000000    -0.0871189  
O566     O      0.438760000000     0.811660000000     0.888410000000    -0.0899468  
O567     O      0.560320000000     0.768860000000     0.565120000000    -0.0881258  
O568     O      0.052740000000     0.808540000000     0.599200000000    -0.0839708  
O569     O      0.670120000000     0.515580000000     0.805560000000    -0.0894995  
O570     O      0.638750000000     0.557190000000     0.796850000000    -0.0932914  
O571     O      0.813110000000     0.970450000000     0.806330000000    -0.0904724  
O572     O      0.846710000000     0.930490000000     0.798200000000    -0.0868228  
O573     O      0.973770000000     0.816150000000     0.676410000000    -0.0890842  
O574     O      0.932730000000     0.848640000000     0.683500000000    -0.0876128  
O575     O      0.972870000000     0.674450000000     0.808840000000    -0.0915103  
O576     O      0.932040000000     0.641690000000     0.801760000000    -0.0907719  


