data_structure

_audit_creation_method RASPA-1.0
_audit_creation_date 2023-5-19
_audit_author_name 'Poobodin Mano'

_cell_length_a    42.3823
_cell_length_b    42.3816
_cell_length_c    42.3824
_cell_angle_alpha 90
_cell_angle_beta  90
_cell_angle_gamma 90
_cell_volume      76128.5

_symmetry_cell_setting          triclinic
_symmetry_space_group_name_Hall 'P 1'
_symmetry_space_group_name_H-M  'P 1'
_symmetry_Int_Tables_number     1

_symmetry_equiv_pos_as_xyz 'x,y,z'

loop_
_atom_site_label
_atom_site_type_symbol
_atom_site_fract_x
_atom_site_fract_y
_atom_site_fract_z
_atom_site_charge
C1       C      0.498500000000     0.057120000000     0.248690000000     0.431065   
C2       C      0.995740000000     0.437060000000     0.249810000000     0.418294   
C3       C      0.437070000000     0.998910000000     0.248740000000     0.417484   
C4       C      0.057100000000     0.995640000000     0.250030000000     0.433004   
C5       C      0.997570000000     0.246650000000     0.307980000000     0.423331   
C6       C      0.998380000000     0.247750000000     0.187970000000     0.423036   
C7       C      0.498640000000     0.187090000000     0.247260000000     0.447388   
C8       C      0.497340000000     0.307110000000     0.248930000000     0.447145   
C9       C      0.307210000000     0.000480000000     0.248290000000     0.459881   
C10      C      0.187020000000     0.995930000000     0.249200000000     0.421285   
C11      C      0.246970000000     0.497710000000     0.188470000000     0.434787   
C12      C      0.247460000000     0.498690000000     0.308750000000     0.431592   
C13      C      0.250380000000     0.058300000000     0.999110000000     0.418346   
C14      C      0.245570000000     0.438090000000     0.498610000000     0.433402   
C15      C      0.248130000000     0.997650000000     0.058720000000     0.446791   
C16      C      0.247760000000     0.998780000000     0.438520000000     0.433604   
C17      C      0.998710000000     0.249090000000     0.058110000000     0.4464     
C18      C      0.497770000000     0.248360000000     0.437760000000     0.451095   
C19      C      0.058460000000     0.248490000000     0.997830000000     0.444053   
C20      C      0.438100000000     0.248920000000     0.998150000000     0.433664   
C21      C      0.250330000000     0.188210000000     0.498750000000     0.442162   
C22      C      0.246130000000     0.308200000000     0.498660000000     0.442391   
C23      C      0.188270000000     0.246970000000     0.998420000000     0.420934   
C24      C      0.308250000000     0.249340000000     0.998840000000     0.432591   
C25      C      0.389540000000     0.271360000000     0.481900000000     0.0281405  
C26      C      0.389820000000     0.226540000000     0.015030000000    -0.0223683  
C27      C      0.356620000000     0.270370000000     0.480880000000     0.0421529  
C28      C      0.356850000000     0.227310000000     0.016450000000     0.210738   
C29      C      0.139600000000     0.227920000000     0.478510000000     0.0271325  
C30      C      0.140130000000     0.267280000000     0.017970000000    -0.0243571  
C31      C      0.106660000000     0.227350000000     0.479600000000     0.0422131  
C32      C      0.107180000000     0.268810000000     0.017010000000     0.213981   
C33      C      0.266230000000     0.389570000000     0.016680000000     0.0332728  
C34      C      0.222610000000     0.389720000000     0.982000000000    -0.0303925  
C35      C      0.265470000000     0.356730000000     0.017610000000     0.0478084  
C36      C      0.223580000000     0.356650000000     0.980710000000     0.204735   
C37      C      0.230260000000     0.106940000000     0.017480000000     0.0333854  
C38      C      0.272980000000     0.106500000000     0.981720000000    -0.031112   
C39      C      0.231200000000     0.139790000000     0.018290000000     0.0469364  
C40      C      0.272110000000     0.139550000000     0.980300000000     0.202746   
C41      C      0.263350000000     0.476020000000     0.357270000000     0.0268679  
C42      C      0.232050000000     0.022150000000     0.357050000000    -0.0229348  
C43      C      0.264690000000     0.477120000000     0.390160000000     0.0412653  
C44      C      0.230870000000     0.021560000000     0.390060000000     0.212157   
C45      C      0.228250000000     0.017620000000     0.139750000000     0.0334919  
C46      C      0.266670000000     0.477240000000     0.140370000000    -0.0276529  
C47      C      0.227560000000     0.016400000000     0.106850000000     0.0499208  
C48      C      0.268360000000     0.478260000000     0.107400000000     0.208626   
C49      C      0.017540000000     0.228040000000     0.356750000000     0.0326664  
C50      C      0.477130000000     0.266410000000     0.356040000000    -0.0277837  
C51      C      0.016390000000     0.227490000000     0.389660000000     0.0490819  
C52      C      0.478170000000     0.268220000000     0.388990000000     0.208792   
C53      C      0.479350000000     0.228360000000     0.139170000000     0.028779   
C54      C      0.517920000000     0.268570000000     0.139960000000    -0.029285   
C55      C      0.480690000000     0.227780000000     0.106260000000     0.0426858  
C56      C      0.516870000000     0.270310000000     0.107000000000     0.20628    
C57      C      0.138420000000     0.472890000000     0.233350000000     0.0262673  
C58      C      0.138730000000     0.017050000000     0.267310000000    -0.0232815  
C59      C      0.105450000000     0.474070000000     0.232310000000     0.0408672  
C60      C      0.105810000000     0.016410000000     0.268730000000     0.212447   
C61      C      0.388190000000     0.482200000000     0.269760000000     0.0252962  
C62      C      0.389070000000     0.018690000000     0.227660000000    -0.0216172  
C63      C      0.355340000000     0.481850000000     0.268740000000     0.0413781  
C64      C      0.356050000000     0.020670000000     0.228620000000     0.205421   
C65      C      0.478450000000     0.388360000000     0.228370000000     0.0254094  
C66      C      0.013490000000     0.388790000000     0.271670000000    -0.0248495  
C67      C      0.477920000000     0.355430000000     0.229170000000     0.0404425  
C68      C      0.015300000000     0.355840000000     0.270650000000     0.211099   
C69      C      0.480800000000     0.106000000000     0.269220000000     0.0269705  
C70      C      0.016900000000     0.105200000000     0.226800000000    -0.0216742  
C71      C      0.479800000000     0.138870000000     0.267720000000     0.0408702  
C72      C      0.018180000000     0.138200000000     0.227170000000     0.212299   
C73      C      0.498500000000     0.057120000000     0.748690000000     0.431079   
C74      C      0.995740000000     0.437060000000     0.749810000000     0.418297   
C75      C      0.437070000000     0.998910000000     0.748740000000     0.417723   
C76      C      0.057100000000     0.995640000000     0.750030000000     0.433002   
C77      C      0.997570000000     0.246650000000     0.807980000000     0.423319   
C78      C      0.998380000000     0.247750000000     0.687960000000     0.42288    
C79      C      0.498640000000     0.187090000000     0.747260000000     0.44737    
C80      C      0.497340000000     0.307110000000     0.748930000000     0.447132   
C81      C      0.307210000000     0.000480000000     0.748290000000     0.459892   
C82      C      0.187020000000     0.995930000000     0.749200000000     0.421237   
C83      C      0.246970000000     0.497710000000     0.688470000000     0.434688   
C84      C      0.247460000000     0.498690000000     0.808760000000     0.431528   
C85      C      0.250380000000     0.058300000000     0.499110000000     0.429875   
C86      C      0.245570000000     0.438090000000     0.998610000000     0.421811   
C87      C      0.248130000000     0.997650000000     0.558720000000     0.448633   
C88      C      0.247760000000     0.998780000000     0.938520000000     0.432527   
C89      C      0.998710000000     0.249090000000     0.558110000000     0.447515   
C90      C      0.497770000000     0.248360000000     0.937760000000     0.450515   
C91      C      0.058460000000     0.248490000000     0.497830000000     0.445399   
C92      C      0.438100000000     0.248920000000     0.498150000000     0.434928   
C93      C      0.250330000000     0.188210000000     0.998750000000     0.432318   
C94      C      0.246130000000     0.308200000000     0.998660000000     0.432614   
C95      C      0.188270000000     0.246970000000     0.498420000000     0.430678   
C96      C      0.308250000000     0.249340000000     0.498840000000     0.442472   
C97      C      0.389540000000     0.271360000000     0.981900000000     0.0270127  
C98      C      0.389820000000     0.226540000000     0.515030000000    -0.0290959  
C99      C      0.356620000000     0.270370000000     0.980880000000     0.0405298  
C100     C      0.356850000000     0.227310000000     0.516450000000     0.205281   
C101     C      0.139600000000     0.227920000000     0.978510000000     0.0255952  
C102     C      0.140130000000     0.267280000000     0.517970000000    -0.0302927  
C103     C      0.106660000000     0.227350000000     0.979600000000     0.0410998  
C104     C      0.107180000000     0.268810000000     0.517010000000     0.207937   
C105     C      0.266230000000     0.389570000000     0.516680000000     0.0274107  
C106     C      0.222610000000     0.389720000000     0.482000000000    -0.0288591  
C107     C      0.265470000000     0.356730000000     0.517610000000     0.0418331  
C108     C      0.223580000000     0.356650000000     0.480710000000     0.206185   
C109     C      0.230260000000     0.106940000000     0.517470000000     0.0277337  
C110     C      0.272980000000     0.106500000000     0.481720000000    -0.0296701  
C111     C      0.231200000000     0.139790000000     0.518290000000     0.0409286  
C112     C      0.272110000000     0.139550000000     0.480300000000     0.204318   
C113     C      0.263350000000     0.476020000000     0.857270000000     0.0268102  
C114     C      0.232050000000     0.022150000000     0.857060000000    -0.0230618  
C115     C      0.264690000000     0.477120000000     0.890160000000     0.0411015  
C116     C      0.230870000000     0.021560000000     0.890060000000     0.21209    
C117     C      0.228250000000     0.017620000000     0.639750000000     0.0332456  
C118     C      0.266670000000     0.477240000000     0.640370000000    -0.0278742  
C119     C      0.227560000000     0.016400000000     0.606850000000     0.0496725  
C120     C      0.268360000000     0.478260000000     0.607400000000     0.208344   
C121     C      0.017540000000     0.228040000000     0.856750000000     0.0326111  
C122     C      0.477130000000     0.266410000000     0.856040000000    -0.0278249  
C123     C      0.016390000000     0.227490000000     0.889660000000     0.0489309  
C124     C      0.478170000000     0.268220000000     0.888990000000     0.208645   
C125     C      0.479350000000     0.228360000000     0.639170000000     0.0285358  
C126     C      0.517920000000     0.268570000000     0.639960000000    -0.0294195  
C127     C      0.480690000000     0.227780000000     0.606270000000     0.0423198  
C128     C      0.516870000000     0.270310000000     0.606990000000     0.206023   
C129     C      0.138420000000     0.472890000000     0.733350000000     0.0261744  
C130     C      0.138730000000     0.017050000000     0.767320000000    -0.0234088  
C131     C      0.105450000000     0.474070000000     0.732310000000     0.040782   
C132     C      0.105810000000     0.016410000000     0.768730000000     0.212421   
C133     C      0.388190000000     0.482200000000     0.769760000000     0.025241   
C134     C      0.389070000000     0.018690000000     0.727660000000    -0.0216797  
C135     C      0.355340000000     0.481850000000     0.768740000000     0.0413101  
C136     C      0.356050000000     0.020670000000     0.728620000000     0.205352   
C137     C      0.478450000000     0.388360000000     0.728370000000     0.0253184  
C138     C      0.013490000000     0.388790000000     0.771670000000    -0.0248956  
C139     C      0.477920000000     0.355430000000     0.729170000000     0.0403644  
C140     C      0.015300000000     0.355840000000     0.770650000000     0.211055   
C141     C      0.480800000000     0.106000000000     0.769220000000     0.0269091  
C142     C      0.016900000000     0.105200000000     0.726800000000    -0.0217584  
C143     C      0.479800000000     0.138870000000     0.767720000000     0.0408071  
C144     C      0.018180000000     0.138200000000     0.727170000000     0.212241   
C145     C      0.498500000000     0.557120000000     0.248690000000     0.433229   
C146     C      0.995740000000     0.937060000000     0.249810000000     0.417195   
C147     C      0.437070000000     0.498910000000     0.248740000000     0.429688   
C148     C      0.057100000000     0.495640000000     0.250030000000     0.445384   
C149     C      0.997570000000     0.746650000000     0.307980000000     0.42329    
C150     C      0.998380000000     0.747750000000     0.187970000000     0.423003   
C151     C      0.498640000000     0.687090000000     0.247260000000     0.447392   
C152     C      0.497340000000     0.807110000000     0.248930000000     0.447129   
C153     C      0.307210000000     0.500480000000     0.248290000000     0.449197   
C154     C      0.187020000000     0.495930000000     0.249200000000     0.431738   
C155     C      0.246970000000     0.997710000000     0.188470000000     0.42415    
C156     C      0.247460000000     0.998690000000     0.308750000000     0.420988   
C157     C      0.250380000000     0.558300000000     0.999110000000     0.41989    
C158     C      0.245570000000     0.938090000000     0.498610000000     0.432489   
C159     C      0.248130000000     0.497650000000     0.058720000000     0.448525   
C160     C      0.247760000000     0.498780000000     0.438520000000     0.445778   
C161     C      0.998710000000     0.749090000000     0.058110000000     0.446418   
C162     C      0.497770000000     0.748360000000     0.437760000000     0.451111   
C163     C      0.058460000000     0.748490000000     0.997830000000     0.444073   
C164     C      0.438100000000     0.748920000000     0.998150000000     0.433679   
C165     C      0.250330000000     0.688210000000     0.498750000000     0.442066   
C166     C      0.246130000000     0.808200000000     0.498660000000     0.442523   
C167     C      0.188270000000     0.746970000000     0.998420000000     0.420908   
C168     C      0.308250000000     0.749340000000     0.998840000000     0.432584   
C169     C      0.389540000000     0.771360000000     0.481900000000     0.0280759  
C170     C      0.389820000000     0.726540000000     0.015030000000    -0.0224364  
C171     C      0.356620000000     0.770370000000     0.480880000000     0.042092   
C172     C      0.356850000000     0.727310000000     0.016450000000     0.210669   
C173     C      0.139600000000     0.727920000000     0.478510000000     0.0270505  
C174     C      0.140130000000     0.767280000000     0.017970000000    -0.0244081  
C175     C      0.106660000000     0.727350000000     0.479600000000     0.0421158  
C176     C      0.107180000000     0.768810000000     0.017010000000     0.213931   
C177     C      0.266230000000     0.889570000000     0.016680000000     0.0331344  
C178     C      0.222610000000     0.889720000000     0.982000000000    -0.0305646  
C179     C      0.265470000000     0.856730000000     0.017610000000     0.0477262  
C180     C      0.223580000000     0.856650000000     0.980710000000     0.204627   
C181     C      0.230260000000     0.606940000000     0.017480000000     0.0331821  
C182     C      0.272980000000     0.606500000000     0.981720000000    -0.0313377  
C183     C      0.231200000000     0.639790000000     0.018290000000     0.0466853  
C184     C      0.272110000000     0.639550000000     0.980300000000     0.202474   
C185     C      0.263350000000     0.976020000000     0.357270000000     0.025376   
C186     C      0.232050000000     0.522150000000     0.357050000000    -0.0293671  
C187     C      0.264690000000     0.977120000000     0.390160000000     0.0396534  
C188     C      0.230870000000     0.521560000000     0.390060000000     0.206617   
C189     C      0.228250000000     0.517620000000     0.139750000000     0.027402   
C190     C      0.266670000000     0.977230000000     0.140370000000    -0.0294105  
C191     C      0.227560000000     0.516400000000     0.106850000000     0.0427816  
C192     C      0.268360000000     0.978260000000     0.107400000000     0.207467   
C193     C      0.017540000000     0.728040000000     0.356750000000     0.032589   
C194     C      0.477130000000     0.766410000000     0.356040000000    -0.027843   
C195     C      0.016390000000     0.727490000000     0.389660000000     0.048988   
C196     C      0.478170000000     0.768220000000     0.388990000000     0.208707   
C197     C      0.479350000000     0.728360000000     0.139170000000     0.0286964  
C198     C      0.517920000000     0.768570000000     0.139960000000    -0.0293354  
C199     C      0.480690000000     0.727780000000     0.106260000000     0.0425877  
C200     C      0.516870000000     0.770310000000     0.107000000000     0.206203   
C201     C      0.138420000000     0.972890000000     0.233350000000     0.0247583  
C202     C      0.138730000000     0.517050000000     0.267310000000    -0.0296547  
C203     C      0.105450000000     0.974070000000     0.232310000000     0.0391903  
C204     C      0.105810000000     0.516410000000     0.268730000000     0.206808   
C205     C      0.388190000000     0.982200000000     0.269760000000     0.0261159  
C206     C      0.389070000000     0.518690000000     0.227660000000    -0.0301743  
C207     C      0.355340000000     0.981850000000     0.268740000000     0.0328943  
C208     C      0.356050000000     0.520670000000     0.228620000000     0.20589    
C209     C      0.478450000000     0.888360000000     0.228370000000     0.0252428  
C210     C      0.013490000000     0.888790000000     0.271670000000    -0.0249871  
C211     C      0.477920000000     0.855430000000     0.229170000000     0.0403589  
C212     C      0.015300000000     0.855840000000     0.270650000000     0.211012   
C213     C      0.480800000000     0.606000000000     0.269220000000     0.0268328  
C214     C      0.016900000000     0.605200000000     0.226800000000    -0.0217811  
C215     C      0.479800000000     0.638870000000     0.267720000000     0.0405791  
C216     C      0.018180000000     0.638200000000     0.227170000000     0.212038   
C217     C      0.498500000000     0.557120000000     0.748690000000     0.433248   
C218     C      0.995740000000     0.937060000000     0.749810000000     0.417196   
C219     C      0.437070000000     0.498910000000     0.748740000000     0.429959   
C220     C      0.057100000000     0.495640000000     0.750030000000     0.4454     
C221     C      0.997570000000     0.746650000000     0.807980000000     0.423277   
C222     C      0.998380000000     0.747750000000     0.687960000000     0.422846   
C223     C      0.498640000000     0.687090000000     0.747260000000     0.447374   
C224     C      0.497340000000     0.807110000000     0.748930000000     0.447116   
C225     C      0.307210000000     0.500480000000     0.748290000000     0.449186   
C226     C      0.187020000000     0.495930000000     0.749200000000     0.431706   
C227     C      0.246970000000     0.997710000000     0.688470000000     0.424029   
C228     C      0.247460000000     0.998690000000     0.808760000000     0.420919   
C229     C      0.250380000000     0.558300000000     0.499110000000     0.431472   
C230     C      0.245570000000     0.938090000000     0.998610000000     0.420908   
C231     C      0.248130000000     0.497650000000     0.558720000000     0.450372   
C232     C      0.247760000000     0.498780000000     0.938520000000     0.444691   
C233     C      0.998710000000     0.749090000000     0.558110000000     0.447535   
C234     C      0.497770000000     0.748360000000     0.937760000000     0.450531   
C235     C      0.058460000000     0.748490000000     0.497830000000     0.445421   
C236     C      0.438100000000     0.748920000000     0.498150000000     0.434945   
C237     C      0.250330000000     0.688210000000     0.998750000000     0.4322     
C238     C      0.246130000000     0.808200000000     0.998660000000     0.432735   
C239     C      0.188270000000     0.746970000000     0.498420000000     0.430667   
C240     C      0.308250000000     0.749340000000     0.498840000000     0.442481   
C241     C      0.389540000000     0.771360000000     0.981900000000     0.0269472  
C242     C      0.389820000000     0.726540000000     0.515030000000    -0.0291787  
C243     C      0.356620000000     0.770370000000     0.980880000000     0.040467   
C244     C      0.356850000000     0.727310000000     0.516450000000     0.2052     
C245     C      0.139600000000     0.727920000000     0.978510000000     0.0255107  
C246     C      0.140130000000     0.767280000000     0.517970000000    -0.0303562  
C247     C      0.106660000000     0.727350000000     0.979600000000     0.041001   
C248     C      0.107180000000     0.768810000000     0.517010000000     0.207875   
C249     C      0.266230000000     0.889570000000     0.516680000000     0.0272702  
C250     C      0.222610000000     0.889720000000     0.482000000000    -0.0290329  
C251     C      0.265470000000     0.856730000000     0.517610000000     0.0417464  
C252     C      0.223580000000     0.856650000000     0.480710000000     0.206079   
C253     C      0.230260000000     0.606940000000     0.517470000000     0.027502   
C254     C      0.272980000000     0.606500000000     0.481720000000    -0.0298916  
C255     C      0.231200000000     0.639790000000     0.518290000000     0.0406575  
C256     C      0.272110000000     0.639550000000     0.480300000000     0.20405    
C257     C      0.263350000000     0.976020000000     0.857270000000     0.0253175  
C258     C      0.232050000000     0.522150000000     0.857060000000    -0.0294962  
C259     C      0.264690000000     0.977120000000     0.890160000000     0.0394907  
C260     C      0.230870000000     0.521560000000     0.890060000000     0.206549   
C261     C      0.228250000000     0.517620000000     0.639750000000     0.0271371  
C262     C      0.266670000000     0.977230000000     0.640370000000    -0.0296365  
C263     C      0.227560000000     0.516400000000     0.606850000000     0.0425001  
C264     C      0.268360000000     0.978260000000     0.607400000000     0.207182   
C265     C      0.017540000000     0.728040000000     0.856750000000     0.0325336  
C266     C      0.477130000000     0.766410000000     0.856040000000    -0.0278842  
C267     C      0.016390000000     0.727490000000     0.889660000000     0.0488367  
C268     C      0.478170000000     0.768220000000     0.888990000000     0.208559   
C269     C      0.479350000000     0.728360000000     0.639170000000     0.0284524  
C270     C      0.517920000000     0.768570000000     0.639960000000    -0.0294705  
C271     C      0.480690000000     0.727780000000     0.606270000000     0.0422207  
C272     C      0.516870000000     0.770310000000     0.606990000000     0.205945   
C273     C      0.138420000000     0.972890000000     0.733350000000     0.0246629  
C274     C      0.138730000000     0.517050000000     0.767320000000    -0.029793   
C275     C      0.105450000000     0.974070000000     0.732310000000     0.0391035  
C276     C      0.105810000000     0.516410000000     0.768730000000     0.206771   
C277     C      0.388190000000     0.982200000000     0.769760000000     0.026063   
C278     C      0.389070000000     0.518690000000     0.727660000000    -0.0302535  
C279     C      0.355340000000     0.981850000000     0.768740000000     0.0328123  
C280     C      0.356050000000     0.520670000000     0.728620000000     0.205821   
C281     C      0.478450000000     0.888360000000     0.728370000000     0.0251515  
C282     C      0.013490000000     0.888790000000     0.771670000000    -0.0250334  
C283     C      0.477920000000     0.855430000000     0.729170000000     0.0402807  
C284     C      0.015300000000     0.855840000000     0.770650000000     0.210969   
C285     C      0.480800000000     0.606000000000     0.769220000000     0.0267711  
C286     C      0.016900000000     0.605200000000     0.726800000000    -0.021866   
C287     C      0.479800000000     0.638870000000     0.767720000000     0.0405154  
C288     C      0.018180000000     0.638200000000     0.727170000000     0.21198    
C289     C      0.998500000000     0.057120000000     0.248690000000     0.419545   
C290     C      0.495740000000     0.437060000000     0.249810000000     0.42985    
C291     C      0.937070000000     0.998910000000     0.248740000000     0.416473   
C292     C      0.557100000000     0.995640000000     0.250030000000     0.435044   
C293     C      0.497570000000     0.246650000000     0.307980000000     0.433221   
C294     C      0.498380000000     0.247750000000     0.187970000000     0.432933   
C295     C      0.998640000000     0.187090000000     0.247260000000     0.437739   
C296     C      0.997340000000     0.307110000000     0.248930000000     0.437225   
C297     C      0.807210000000     0.000480000000     0.248290000000     0.459882   
C298     C      0.687020000000     0.995930000000     0.249200000000     0.421206   
C299     C      0.746970000000     0.497710000000     0.188470000000     0.434764   
C300     C      0.747460000000     0.498690000000     0.308750000000     0.43157    
C301     C      0.750380000000     0.058300000000     0.999110000000     0.418314   
C302     C      0.745570000000     0.438090000000     0.498610000000     0.433384   
C303     C      0.748140000000     0.997650000000     0.058720000000     0.446776   
C304     C      0.747760000000     0.998780000000     0.438520000000     0.433577   
C305     C      0.498710000000     0.249090000000     0.058110000000     0.447747   
C306     C      0.997770000000     0.248360000000     0.437760000000     0.449806   
C307     C      0.558450000000     0.248490000000     0.997830000000     0.445224   
C308     C      0.938090000000     0.248920000000     0.998150000000     0.432965   
C309     C      0.750330000000     0.188210000000     0.498750000000     0.442087   
C310     C      0.746120000000     0.308200000000     0.498660000000     0.442369   
C311     C      0.688270000000     0.246970000000     0.998420000000     0.42085    
C312     C      0.808250000000     0.249340000000     0.998840000000     0.432639   
C313     C      0.889550000000     0.271360000000     0.481900000000     0.0280353  
C314     C      0.889820000000     0.226540000000     0.015030000000    -0.0224949  
C315     C      0.856620000000     0.270370000000     0.480880000000     0.0420807  
C316     C      0.856850000000     0.227310000000     0.016450000000     0.210678   
C317     C      0.639600000000     0.227920000000     0.478510000000     0.0268842  
C318     C      0.640130000000     0.267280000000     0.017970000000    -0.0245336  
C319     C      0.606660000000     0.227350000000     0.479600000000     0.0418695  
C320     C      0.607180000000     0.268810000000     0.017010000000     0.213694   
C321     C      0.766230000000     0.389570000000     0.016680000000     0.0332158  
C322     C      0.722610000000     0.389720000000     0.982000000000    -0.0304703  
C323     C      0.765470000000     0.356730000000     0.017610000000     0.0477738  
C324     C      0.723580000000     0.356650000000     0.980710000000     0.204636   
C325     C      0.730260000000     0.106940000000     0.017480000000     0.0333048  
C326     C      0.772990000000     0.106500000000     0.981720000000    -0.0312529  
C327     C      0.731200000000     0.139790000000     0.018290000000     0.0468712  
C328     C      0.772110000000     0.139550000000     0.980300000000     0.20273    
C329     C      0.763350000000     0.476020000000     0.357270000000     0.026798   
C330     C      0.732050000000     0.022150000000     0.357050000000    -0.0230064  
C331     C      0.764690000000     0.477120000000     0.390160000000     0.0411891  
C332     C      0.730870000000     0.021560000000     0.390060000000     0.21209    
C333     C      0.728250000000     0.017620000000     0.139750000000     0.0333998  
C334     C      0.766670000000     0.477240000000     0.140370000000    -0.0277002  
C335     C      0.727560000000     0.016400000000     0.106850000000     0.0498425  
C336     C      0.768360000000     0.478260000000     0.107400000000     0.208542   
C337     C      0.517540000000     0.228040000000     0.356750000000     0.0270065  
C338     C      0.977130000000     0.266410000000     0.356040000000    -0.0292247  
C339     C      0.516390000000     0.227490000000     0.389660000000     0.0423157  
C340     C      0.978170000000     0.268220000000     0.388990000000     0.207532   
C341     C      0.979350000000     0.228360000000     0.139170000000     0.027156   
C342     C      0.017920000000     0.268570000000     0.139960000000    -0.0235585  
C343     C      0.980690000000     0.227780000000     0.106260000000     0.0415364  
C344     C      0.016870000000     0.270310000000     0.107000000000     0.212519   
C345     C      0.638420000000     0.472890000000     0.233350000000     0.025991   
C346     C      0.638730000000     0.017050000000     0.267310000000    -0.0234982  
C347     C      0.605450000000     0.474070000000     0.232310000000     0.0407264  
C348     C      0.605810000000     0.016410000000     0.268730000000     0.212361   
C349     C      0.888190000000     0.482200000000     0.269760000000     0.0251391  
C350     C      0.889070000000     0.018690000000     0.227660000000    -0.0217706  
C351     C      0.855340000000     0.481850000000     0.268740000000     0.041302   
C352     C      0.856050000000     0.020670000000     0.228620000000     0.205355   
C353     C      0.978450000000     0.388360000000     0.228370000000     0.0239068  
C354     C      0.513490000000     0.388790000000     0.271670000000    -0.0309367  
C355     C      0.977910000000     0.355430000000     0.229170000000     0.0388617  
C356     C      0.515300000000     0.355840000000     0.270650000000     0.205766   
C357     C      0.980810000000     0.106000000000     0.269220000000     0.0254908  
C358     C      0.516900000000     0.105200000000     0.226800000000    -0.0276841  
C359     C      0.979800000000     0.138870000000     0.267720000000     0.0393551  
C360     C      0.518180000000     0.138200000000     0.227170000000     0.20698    
C361     C      0.998500000000     0.057120000000     0.748690000000     0.419541   
C362     C      0.495740000000     0.437060000000     0.749810000000     0.429866   
C363     C      0.937070000000     0.998910000000     0.748740000000     0.416709   
C364     C      0.557100000000     0.995640000000     0.750030000000     0.435045   
C365     C      0.497570000000     0.246650000000     0.807980000000     0.433214   
C366     C      0.498380000000     0.247750000000     0.687960000000     0.43279    
C367     C      0.998640000000     0.187090000000     0.747260000000     0.437709   
C368     C      0.997340000000     0.307110000000     0.748930000000     0.437201   
C369     C      0.807210000000     0.000480000000     0.748290000000     0.459893   
C370     C      0.687020000000     0.995930000000     0.749200000000     0.421157   
C371     C      0.746970000000     0.497710000000     0.688470000000     0.434665   
C372     C      0.747460000000     0.498690000000     0.808760000000     0.431506   
C373     C      0.750380000000     0.058300000000     0.499110000000     0.429861   
C374     C      0.745570000000     0.438090000000     0.998610000000     0.421781   
C375     C      0.748140000000     0.997650000000     0.558720000000     0.448619   
C376     C      0.747760000000     0.998780000000     0.938520000000     0.4325     
C377     C      0.498710000000     0.249090000000     0.558110000000     0.448867   
C378     C      0.997770000000     0.248360000000     0.937760000000     0.449229   
C379     C      0.558450000000     0.248490000000     0.497830000000     0.446574   
C380     C      0.938090000000     0.248920000000     0.498150000000     0.434226   
C381     C      0.750330000000     0.188210000000     0.998750000000     0.432232   
C382     C      0.746120000000     0.308200000000     0.998660000000     0.432582   
C383     C      0.688270000000     0.246970000000     0.498420000000     0.43061    
C384     C      0.808250000000     0.249340000000     0.498840000000     0.442528   
C385     C      0.889550000000     0.271360000000     0.981900000000     0.0269093  
C386     C      0.889820000000     0.226540000000     0.515030000000    -0.0292206  
C387     C      0.856620000000     0.270370000000     0.980880000000     0.0404571  
C388     C      0.856850000000     0.227310000000     0.516450000000     0.205217   
C389     C      0.639600000000     0.227920000000     0.978510000000     0.0253435  
C390     C      0.640130000000     0.267280000000     0.517970000000    -0.0304848  
C391     C      0.606660000000     0.227350000000     0.979600000000     0.0407546  
C392     C      0.607180000000     0.268810000000     0.517010000000     0.207626   
C393     C      0.766230000000     0.389570000000     0.516680000000     0.0273441  
C394     C      0.722610000000     0.389720000000     0.482000000000    -0.0289353  
C395     C      0.765470000000     0.356730000000     0.517610000000     0.0417893  
C396     C      0.723580000000     0.356650000000     0.480710000000     0.206088   
C397     C      0.730260000000     0.106940000000     0.517470000000     0.0276436  
C398     C      0.772990000000     0.106500000000     0.481720000000    -0.0298095  
C399     C      0.731200000000     0.139790000000     0.518290000000     0.0408535  
C400     C      0.772110000000     0.139550000000     0.480300000000     0.204303   
C401     C      0.763350000000     0.476020000000     0.857270000000     0.0267404  
C402     C      0.732050000000     0.022150000000     0.857060000000    -0.0231335  
C403     C      0.764690000000     0.477120000000     0.890160000000     0.0410253  
C404     C      0.730870000000     0.021560000000     0.890060000000     0.212022   
C405     C      0.728250000000     0.017620000000     0.639750000000     0.0331527  
C406     C      0.766670000000     0.477240000000     0.640370000000    -0.027922   
C407     C      0.727560000000     0.016400000000     0.606850000000     0.0495937  
C408     C      0.768360000000     0.478260000000     0.607400000000     0.208259   
C409     C      0.517540000000     0.228040000000     0.856750000000     0.0269469  
C410     C      0.977130000000     0.266410000000     0.856040000000    -0.0292656  
C411     C      0.516390000000     0.227490000000     0.889660000000     0.0421666  
C412     C      0.978170000000     0.268220000000     0.888990000000     0.207386   
C413     C      0.979350000000     0.228360000000     0.639170000000     0.0269097  
C414     C      0.017920000000     0.268570000000     0.639960000000    -0.0236777  
C415     C      0.980690000000     0.227780000000     0.606270000000     0.0411683  
C416     C      0.016870000000     0.270310000000     0.606990000000     0.21229    
C417     C      0.638420000000     0.472890000000     0.733350000000     0.0258974  
C418     C      0.638730000000     0.017050000000     0.767320000000    -0.023626   
C419     C      0.605450000000     0.474070000000     0.732310000000     0.0406405  
C420     C      0.605810000000     0.016410000000     0.768730000000     0.212335   
C421     C      0.888190000000     0.482200000000     0.769760000000     0.0250838  
C422     C      0.889070000000     0.018690000000     0.727660000000    -0.0218334  
C423     C      0.855340000000     0.481850000000     0.768740000000     0.0412341  
C424     C      0.856050000000     0.020670000000     0.728620000000     0.205287   
C425     C      0.978450000000     0.388360000000     0.728370000000     0.0238142  
C426     C      0.513490000000     0.388790000000     0.771670000000    -0.0309925  
C427     C      0.977910000000     0.355430000000     0.729170000000     0.038782   
C428     C      0.515300000000     0.355840000000     0.770650000000     0.205714   
C429     C      0.980810000000     0.106000000000     0.769220000000     0.0254284  
C430     C      0.516900000000     0.105200000000     0.726800000000    -0.0277786  
C431     C      0.979800000000     0.138870000000     0.767720000000     0.039291   
C432     C      0.518180000000     0.138200000000     0.727170000000     0.206914   
C433     C      0.998500000000     0.557120000000     0.248690000000     0.421656   
C434     C      0.495740000000     0.937060000000     0.249810000000     0.428732   
C435     C      0.937070000000     0.498910000000     0.248740000000     0.428655   
C436     C      0.557100000000     0.495640000000     0.250030000000     0.447483   
C437     C      0.497570000000     0.746650000000     0.307980000000     0.43319    
C438     C      0.498380000000     0.747750000000     0.187970000000     0.432909   
C439     C      0.998640000000     0.687090000000     0.247260000000     0.437726   
C440     C      0.997340000000     0.807110000000     0.248930000000     0.437205   
C441     C      0.807210000000     0.500480000000     0.248290000000     0.449188   
C442     C      0.687020000000     0.495930000000     0.249200000000     0.431676   
C443     C      0.746970000000     0.997710000000     0.188470000000     0.424117   
C444     C      0.747460000000     0.998690000000     0.308750000000     0.420956   
C445     C      0.750380000000     0.558300000000     0.999110000000     0.41986    
C446     C      0.745570000000     0.938090000000     0.498610000000     0.432471   
C447     C      0.748140000000     0.497650000000     0.058720000000     0.448509   
C448     C      0.747760000000     0.498780000000     0.438520000000     0.445769   
C449     C      0.498710000000     0.749090000000     0.058110000000     0.447765   
C450     C      0.997770000000     0.748360000000     0.437760000000     0.449822   
C451     C      0.558450000000     0.748490000000     0.997830000000     0.445245   
C452     C      0.938090000000     0.748920000000     0.998150000000     0.43298    
C453     C      0.750330000000     0.688210000000     0.498750000000     0.441991   
C454     C      0.746120000000     0.808200000000     0.498660000000     0.442501   
C455     C      0.688270000000     0.746970000000     0.998420000000     0.420823   
C456     C      0.808250000000     0.749340000000     0.998840000000     0.432631   
C457     C      0.889550000000     0.771360000000     0.481900000000     0.0279707  
C458     C      0.889820000000     0.726540000000     0.015030000000    -0.0225632  
C459     C      0.856620000000     0.770370000000     0.480880000000     0.0420199  
C460     C      0.856850000000     0.727310000000     0.016450000000     0.210609   
C461     C      0.639600000000     0.727920000000     0.478510000000     0.0268015  
C462     C      0.640130000000     0.767280000000     0.017970000000    -0.024585   
C463     C      0.606660000000     0.727350000000     0.479600000000     0.0417715  
C464     C      0.607180000000     0.768810000000     0.017010000000     0.213644   
C465     C      0.766230000000     0.889570000000     0.016680000000     0.0330775  
C466     C      0.722610000000     0.889720000000     0.982000000000    -0.0306425  
C467     C      0.765470000000     0.856730000000     0.017610000000     0.0476917  
C468     C      0.723580000000     0.856650000000     0.980710000000     0.204528   
C469     C      0.730260000000     0.606940000000     0.017480000000     0.0331009  
C470     C      0.772990000000     0.606500000000     0.981720000000    -0.0314789  
C471     C      0.731200000000     0.639790000000     0.018290000000     0.0466194  
C472     C      0.772110000000     0.639550000000     0.980300000000     0.202457   
C473     C      0.763350000000     0.976020000000     0.357270000000     0.0253053  
C474     C      0.732050000000     0.522150000000     0.357050000000    -0.0294481  
C475     C      0.764690000000     0.977120000000     0.390160000000     0.0395762  
C476     C      0.730870000000     0.521560000000     0.390060000000     0.206542   
C477     C      0.728250000000     0.517620000000     0.139750000000     0.0273     
C478     C      0.766670000000     0.977230000000     0.140370000000    -0.029459   
C479     C      0.727560000000     0.516400000000     0.106850000000     0.042692   
C480     C      0.768360000000     0.978260000000     0.107400000000     0.207383   
C481     C      0.517540000000     0.728040000000     0.356750000000     0.0269198  
C482     C      0.977130000000     0.766410000000     0.356040000000    -0.029285   
C483     C      0.516390000000     0.727490000000     0.389660000000     0.0422109  
C484     C      0.978170000000     0.768220000000     0.388990000000     0.207447   
C485     C      0.979350000000     0.728360000000     0.139170000000     0.027072   
C486     C      0.017920000000     0.768570000000     0.139960000000    -0.0236005  
C487     C      0.980690000000     0.727780000000     0.106260000000     0.0414376  
C488     C      0.016870000000     0.770310000000     0.107000000000     0.21245    
C489     C      0.638420000000     0.972890000000     0.233350000000     0.024479   
C490     C      0.638730000000     0.517050000000     0.267310000000    -0.0298885  
C491     C      0.605450000000     0.974070000000     0.232310000000     0.039045   
C492     C      0.605810000000     0.516410000000     0.268730000000     0.2067     
C493     C      0.888190000000     0.982200000000     0.269760000000     0.0259611  
C494     C      0.889070000000     0.518690000000     0.227660000000    -0.0303245  
C495     C      0.855340000000     0.981850000000     0.268740000000     0.032819   
C496     C      0.856050000000     0.520670000000     0.228620000000     0.205823   
C497     C      0.978450000000     0.888360000000     0.228370000000     0.0237422  
C498     C      0.513490000000     0.888790000000     0.271670000000    -0.0310711  
C499     C      0.977910000000     0.855430000000     0.229170000000     0.038779   
C500     C      0.515300000000     0.855840000000     0.270650000000     0.205676   
C501     C      0.980810000000     0.606000000000     0.269220000000     0.0253492  
C502     C      0.516900000000     0.605200000000     0.226800000000    -0.0278153  
C503     C      0.979800000000     0.638870000000     0.267720000000     0.0390611  
C504     C      0.518180000000     0.638200000000     0.227170000000     0.206705   
C505     C      0.998500000000     0.557120000000     0.748690000000     0.421656   
C506     C      0.495740000000     0.937060000000     0.749810000000     0.428746   
C507     C      0.937070000000     0.498910000000     0.748740000000     0.428924   
C508     C      0.557100000000     0.495640000000     0.750030000000     0.447502   
C509     C      0.497570000000     0.746650000000     0.807980000000     0.433183   
C510     C      0.498380000000     0.747750000000     0.687960000000     0.432765   
C511     C      0.998640000000     0.687090000000     0.747260000000     0.437696   
C512     C      0.997340000000     0.807110000000     0.748930000000     0.437181   
C513     C      0.807210000000     0.500480000000     0.748290000000     0.449176   
C514     C      0.687020000000     0.495930000000     0.749200000000     0.431644   
C515     C      0.746970000000     0.997710000000     0.688470000000     0.423995   
C516     C      0.747460000000     0.998690000000     0.808760000000     0.420886   
C517     C      0.750380000000     0.558300000000     0.499110000000     0.43146    
C518     C      0.745570000000     0.938090000000     0.998610000000     0.420877   
C519     C      0.748140000000     0.497650000000     0.558720000000     0.450359   
C520     C      0.747760000000     0.498780000000     0.938520000000     0.444681   
C521     C      0.498710000000     0.749090000000     0.558110000000     0.448887   
C522     C      0.997770000000     0.748360000000     0.937760000000     0.449244   
C523     C      0.558450000000     0.748490000000     0.497830000000     0.446597   
C524     C      0.938090000000     0.748920000000     0.498150000000     0.434242   
C525     C      0.750330000000     0.688210000000     0.998750000000     0.432114   
C526     C      0.746120000000     0.808200000000     0.998660000000     0.432703   
C527     C      0.688270000000     0.746970000000     0.498420000000     0.430599   
C528     C      0.808250000000     0.749340000000     0.498840000000     0.442538   
C529     C      0.889550000000     0.771360000000     0.981900000000     0.026844   
C530     C      0.889820000000     0.726540000000     0.515030000000    -0.0293036  
C531     C      0.856620000000     0.770370000000     0.980880000000     0.0403944  
C532     C      0.856850000000     0.727310000000     0.516450000000     0.205136   
C533     C      0.639600000000     0.727920000000     0.978510000000     0.0252583  
C534     C      0.640130000000     0.767280000000     0.517970000000    -0.0305486  
C535     C      0.606660000000     0.727350000000     0.979600000000     0.040655   
C536     C      0.607180000000     0.768810000000     0.517010000000     0.207563   
C537     C      0.766230000000     0.889570000000     0.516680000000     0.0272037  
C538     C      0.722610000000     0.889720000000     0.482000000000    -0.0291094  
C539     C      0.765470000000     0.856730000000     0.517610000000     0.0417027  
C540     C      0.723580000000     0.856650000000     0.480710000000     0.205982   
C541     C      0.730260000000     0.606940000000     0.517470000000     0.0274113  
C542     C      0.772990000000     0.606500000000     0.481720000000    -0.0300313  
C543     C      0.731200000000     0.639790000000     0.518290000000     0.0405817  
C544     C      0.772110000000     0.639550000000     0.480300000000     0.204034   
C545     C      0.763350000000     0.976020000000     0.857270000000     0.0252468  
C546     C      0.732050000000     0.522150000000     0.857060000000    -0.0295772  
C547     C      0.764690000000     0.977120000000     0.890160000000     0.0394135  
C548     C      0.730870000000     0.521560000000     0.890060000000     0.206474   
C549     C      0.728250000000     0.517620000000     0.639750000000     0.0270342  
C550     C      0.766670000000     0.977230000000     0.640370000000    -0.0296853  
C551     C      0.727560000000     0.516400000000     0.606850000000     0.0424099  
C552     C      0.768360000000     0.978260000000     0.607400000000     0.207098   
C553     C      0.517540000000     0.728040000000     0.856750000000     0.02686    
C554     C      0.977130000000     0.766410000000     0.856040000000    -0.0293259  
C555     C      0.516390000000     0.727490000000     0.889660000000     0.0420615  
C556     C      0.978170000000     0.768220000000     0.888990000000     0.207301   
C557     C      0.979350000000     0.728360000000     0.639170000000     0.0268248  
C558     C      0.017920000000     0.768570000000     0.639960000000    -0.0237203  
C559     C      0.980690000000     0.727780000000     0.606270000000     0.0410683  
C560     C      0.016870000000     0.770310000000     0.606990000000     0.212221   
C561     C      0.638420000000     0.972890000000     0.733350000000     0.0243831  
C562     C      0.638730000000     0.517050000000     0.767320000000    -0.0300272  
C563     C      0.605450000000     0.974070000000     0.732310000000     0.0389574  
C564     C      0.605810000000     0.516410000000     0.768730000000     0.206662   
C565     C      0.888190000000     0.982200000000     0.769760000000     0.0259082  
C566     C      0.889070000000     0.518690000000     0.727660000000    -0.030404   
C567     C      0.855340000000     0.981850000000     0.768740000000     0.0327371  
C568     C      0.856050000000     0.520670000000     0.728620000000     0.205754   
C569     C      0.978450000000     0.888360000000     0.728370000000     0.0236493  
C570     C      0.513490000000     0.888790000000     0.771670000000    -0.031127   
C571     C      0.977910000000     0.855430000000     0.729170000000     0.0386992  
C572     C      0.515300000000     0.855840000000     0.770650000000     0.205624   
C573     C      0.980810000000     0.606000000000     0.769220000000     0.0252864  
C574     C      0.516900000000     0.605200000000     0.726800000000    -0.0279104  
C575     C      0.979800000000     0.638870000000     0.767720000000     0.0389963  
C576     C      0.518180000000     0.638200000000     0.727170000000     0.206638   
H1       H      0.344280000000     0.287870000000     0.466840000000     0.0377329  
H2       H      0.401700000000     0.289230000000     0.468180000000     0.0460537  
H3       H      0.402280000000     0.208690000000     0.028520000000     0.0636406  
H4       H      0.337850000000     0.187020000000     0.020110000000     0.149897   
H5       H      0.094190000000     0.211020000000     0.464330000000     0.0358955  
H6       H      0.151650000000     0.211670000000     0.462830000000     0.0417956  
H7       H      0.152680000000     0.283170000000     0.033650000000     0.0646344  
H8       H      0.088460000000     0.278160000000     0.056440000000     0.165697   
H9       H      0.282660000000     0.344580000000     0.032200000000     0.0385304  
H10      H      0.283650000000     0.401730000000     0.030980000000     0.0477001  
H11      H      0.205240000000     0.402120000000     0.967870000000     0.065392   
H12      H      0.183610000000     0.337180000000     0.976190000000     0.152737   
H13      H      0.214420000000     0.152040000000     0.033260000000     0.0381665  
H14      H      0.213140000000     0.094890000000     0.032220000000     0.0413534  
H15      H      0.289900000000     0.093970000000     0.967150000000     0.0629278  
H16      H      0.312060000000     0.158640000000     0.974220000000     0.145332   
H17      H      0.278100000000     0.459120000000     0.402490000000     0.0358645  
H18      H      0.276220000000     0.457550000000     0.345090000000     0.0393711  
H19      H      0.219200000000     0.040480000000     0.344620000000     0.0635238  
H20      H      0.229220000000     0.061940000000     0.409170000000     0.153799   
H21      H      0.211480000000     0.031930000000     0.094350000000     0.0358166  
H22      H      0.212360000000     0.033710000000     0.151750000000     0.0415551  
H23      H      0.282130000000     0.461170000000     0.152970000000     0.0662819  
H24      H      0.308760000000     0.470070000000     0.090180000000     0.159914   
H25      H      0.031980000000     0.211510000000     0.402190000000     0.0352239  
H26      H      0.033630000000     0.212130000000     0.344780000000     0.0409829  
H27      H      0.461030000000     0.281830000000     0.343430000000     0.0669583  
H28      H      0.469840000000     0.308690000000     0.405980000000     0.160005   
H29      H      0.465920000000     0.211020000000     0.093750000000     0.0378204  
H30      H      0.463980000000     0.211730000000     0.151100000000     0.0439056  
H31      H      0.533190000000     0.284750000000     0.152640000000     0.0633984  
H32      H      0.522890000000     0.311220000000     0.090120000000     0.161295   
H33      H      0.093040000000     0.456940000000     0.217890000000     0.0368435  
H34      H      0.150550000000     0.455300000000     0.219260000000     0.0410065  
H35      H      0.151150000000     0.034720000000     0.281080000000     0.0651234  
H36      H      0.088470000000     0.029250000000     0.307850000000     0.161458   
H37      H      0.342850000000     0.466580000000     0.285080000000     0.034993   
H38      H      0.400000000000     0.466900000000     0.286550000000     0.041132   
H39      H      0.401770000000     0.033250000000     0.210870000000     0.0643473  
H40      H      0.338960000000     0.060670000000     0.218560000000     0.158274   
H41      H      0.463290000000     0.343070000000     0.212170000000     0.0363778  
H42      H      0.463870000000     0.400390000000     0.211110000000     0.041392   
H43      H      0.027600000000     0.401240000000     0.289030000000     0.0647092  
H44      H      0.054950000000     0.338950000000     0.282410000000     0.158795   
H45      H      0.464570000000     0.151330000000     0.284100000000     0.0372008  
H46      H      0.465910000000     0.094130000000     0.286320000000     0.0420527  
H47      H      0.031540000000     0.092570000000     0.210010000000     0.0683444  
H48      H      0.057840000000     0.155540000000     0.216120000000     0.160414   
H49      H      0.344280000000     0.287870000000     0.966840000000     0.0373186  
H50      H      0.401700000000     0.289230000000     0.968180000000     0.0455964  
H51      H      0.402280000000     0.208690000000     0.528520000000     0.0629936  
H52      H      0.337850000000     0.187020000000     0.520110000000     0.147085   
H53      H      0.094190000000     0.211020000000     0.964330000000     0.0355211  
H54      H      0.151650000000     0.211670000000     0.962830000000     0.041471   
H55      H      0.152680000000     0.283170000000     0.533650000000     0.0643448  
H56      H      0.088460000000     0.278160000000     0.556440000000     0.164977   
H57      H      0.282660000000     0.344580000000     0.532200000000     0.0381847  
H58      H      0.283650000000     0.401730000000     0.530980000000     0.0475247  
H59      H      0.205240000000     0.402120000000     0.467870000000     0.0656061  
H60      H      0.183610000000     0.337180000000     0.476190000000     0.154273   
H61      H      0.214420000000     0.152040000000     0.533260000000     0.0378975  
H62      H      0.213140000000     0.094890000000     0.532220000000     0.0411222  
H63      H      0.289900000000     0.093970000000     0.467150000000     0.063166   
H64      H      0.312060000000     0.158640000000     0.474220000000     0.147123   
H65      H      0.278100000000     0.459120000000     0.902490000000     0.0354559  
H66      H      0.276220000000     0.457550000000     0.845090000000     0.0392427  
H67      H      0.219200000000     0.040480000000     0.844620000000     0.0634488  
H68      H      0.229220000000     0.061940000000     0.909170000000     0.153566   
H69      H      0.211480000000     0.031930000000     0.594350000000     0.0351276  
H70      H      0.212360000000     0.033710000000     0.651750000000     0.0413221  
H71      H      0.282130000000     0.461170000000     0.652970000000     0.0660862  
H72      H      0.308760000000     0.470070000000     0.590190000000     0.159171   
H73      H      0.031980000000     0.211510000000     0.902190000000     0.0350023  
H74      H      0.033630000000     0.212130000000     0.844780000000     0.040881   
H75      H      0.461030000000     0.281830000000     0.843430000000     0.0668709  
H76      H      0.469840000000     0.308690000000     0.905980000000     0.159644   
H77      H      0.465920000000     0.211020000000     0.593760000000     0.0369917  
H78      H      0.463980000000     0.211730000000     0.651100000000     0.0436469  
H79      H      0.533190000000     0.284750000000     0.652640000000     0.0631895  
H80      H      0.522890000000     0.311220000000     0.590120000000     0.160462   
H81      H      0.093040000000     0.456940000000     0.717880000000     0.0366314  
H82      H      0.150550000000     0.455300000000     0.719260000000     0.0408376  
H83      H      0.151150000000     0.034720000000     0.781080000000     0.0650791  
H84      H      0.088470000000     0.029250000000     0.807850000000     0.161261   
H85      H      0.342850000000     0.466580000000     0.785080000000     0.0349027  
H86      H      0.400000000000     0.466900000000     0.786550000000     0.04099    
H87      H      0.401770000000     0.033250000000     0.710870000000     0.0641054  
H88      H      0.338960000000     0.060670000000     0.718560000000     0.158177   
H89      H      0.463290000000     0.343070000000     0.712170000000     0.0361935  
H90      H      0.463870000000     0.400390000000     0.711110000000     0.0411464  
H91      H      0.027600000000     0.401240000000     0.789030000000     0.0645826  
H92      H      0.054950000000     0.338950000000     0.782410000000     0.158725   
H93      H      0.464570000000     0.151330000000     0.784100000000     0.0371129  
H94      H      0.465910000000     0.094130000000     0.786320000000     0.0419217  
H95      H      0.031540000000     0.092570000000     0.710010000000     0.0681048  
H96      H      0.057840000000     0.155540000000     0.716120000000     0.160318   
H97      H      0.344280000000     0.787870000000     0.466840000000     0.037643   
H98      H      0.401700000000     0.789230000000     0.468180000000     0.0459166  
H99      H      0.402280000000     0.708690000000     0.028520000000     0.0633877  
H100     H      0.337850000000     0.687020000000     0.020110000000     0.149649   
H101     H      0.094190000000     0.711020000000     0.464330000000     0.0356839  
H102     H      0.151650000000     0.711670000000     0.462830000000     0.0416416  
H103     H      0.152680000000     0.783170000000     0.033650000000     0.0645475  
H104     H      0.088460000000     0.778160000000     0.056440000000     0.165632   
H105     H      0.282660000000     0.844580000000     0.032200000000     0.0384347  
H106     H      0.283650000000     0.901730000000     0.030980000000     0.0474996  
H107     H      0.205240000000     0.902120000000     0.967870000000     0.0648742  
H108     H      0.183610000000     0.837180000000     0.976190000000     0.152572   
H109     H      0.214420000000     0.652040000000     0.033260000000     0.0379383  
H110     H      0.213140000000     0.594890000000     0.032220000000     0.0405181  
H111     H      0.289900000000     0.593970000000     0.967150000000     0.0619683  
H112     H      0.312060000000     0.658640000000     0.974220000000     0.145034   
H113     H      0.278100000000     0.959120000000     0.402490000000     0.0357773  
H114     H      0.276220000000     0.957550000000     0.345090000000     0.0392209  
H115     H      0.219200000000     0.540480000000     0.344620000000     0.0638051  
H116     H      0.229220000000     0.561940000000     0.409170000000     0.152921   
H117     H      0.211480000000     0.531930000000     0.094350000000     0.0351711  
H118     H      0.212360000000     0.533710000000     0.151750000000     0.0412379  
H119     H      0.282130000000     0.961170000000     0.152970000000     0.0659002  
H120     H      0.308760000000     0.970070000000     0.090180000000     0.158599   
H121     H      0.031980000000     0.711510000000     0.402190000000     0.0350143  
H122     H      0.033630000000     0.712130000000     0.344780000000     0.0408314  
H123     H      0.461030000000     0.781830000000     0.343430000000     0.066877   
H124     H      0.469840000000     0.808690000000     0.405980000000     0.159779   
H125     H      0.465920000000     0.711020000000     0.093750000000     0.0375829  
H126     H      0.463980000000     0.711730000000     0.151100000000     0.043724   
H127     H      0.533190000000     0.784750000000     0.152640000000     0.0633087  
H128     H      0.522890000000     0.811220000000     0.090120000000     0.161054   
H129     H      0.093040000000     0.956940000000     0.217890000000     0.0367039  
H130     H      0.150550000000     0.955300000000     0.219260000000     0.0407434  
H131     H      0.151150000000     0.534730000000     0.281080000000     0.0653101  
H132     H      0.088470000000     0.529250000000     0.307850000000     0.159804   
H133     H      0.342850000000     0.966580000000     0.285080000000     0.0358101  
H134     H      0.400000000000     0.966900000000     0.286550000000     0.0402849  
H135     H      0.401770000000     0.533250000000     0.210870000000     0.0647723  
H136     H      0.338960000000     0.560670000000     0.218560000000     0.158116   
H137     H      0.463290000000     0.843070000000     0.212170000000     0.0362403  
H138     H      0.463870000000     0.900390000000     0.211110000000     0.0409317  
H139     H      0.027600000000     0.901250000000     0.289030000000     0.0642139  
H140     H      0.054950000000     0.838950000000     0.282410000000     0.158657   
H141     H      0.464570000000     0.651330000000     0.284100000000     0.0369493  
H142     H      0.465910000000     0.594130000000     0.286320000000     0.0410961  
H143     H      0.031540000000     0.592570000000     0.210010000000     0.0674285  
H144     H      0.057840000000     0.655530000000     0.216120000000     0.160195   
H145     H      0.344280000000     0.787870000000     0.966840000000     0.0372293  
H146     H      0.401700000000     0.789230000000     0.968180000000     0.0454598  
H147     H      0.402280000000     0.708690000000     0.528520000000     0.0627369  
H148     H      0.337850000000     0.687020000000     0.520110000000     0.146827   
H149     H      0.094190000000     0.711020000000     0.964330000000     0.0353086  
H150     H      0.151650000000     0.711670000000     0.962830000000     0.0413158  
H151     H      0.152680000000     0.783170000000     0.533650000000     0.064258   
H152     H      0.088460000000     0.778160000000     0.556440000000     0.16491    
H153     H      0.282660000000     0.844580000000     0.532200000000     0.0380874  
H154     H      0.283650000000     0.901730000000     0.530980000000     0.0473234  
H155     H      0.205240000000     0.902120000000     0.467870000000     0.0650877  
H156     H      0.183610000000     0.837180000000     0.476190000000     0.154108   
H157     H      0.214420000000     0.652040000000     0.533260000000     0.0376675  
H158     H      0.213140000000     0.594890000000     0.532220000000     0.0402831  
H159     H      0.289900000000     0.593970000000     0.467150000000     0.0622065  
H160     H      0.312060000000     0.658640000000     0.474220000000     0.146829   
H161     H      0.278100000000     0.959120000000     0.902490000000     0.035369   
H162     H      0.276220000000     0.957550000000     0.845090000000     0.0390929  
H163     H      0.219200000000     0.540480000000     0.844620000000     0.0637276  
H164     H      0.229220000000     0.561940000000     0.909170000000     0.152687   
H165     H      0.211480000000     0.531930000000     0.594350000000     0.0344771  
H166     H      0.212360000000     0.533710000000     0.651750000000     0.0410027  
H167     H      0.282130000000     0.961170000000     0.652970000000     0.065704   
H168     H      0.308760000000     0.970070000000     0.590190000000     0.157853   
H169     H      0.031980000000     0.711510000000     0.902190000000     0.0347921  
H170     H      0.033630000000     0.712130000000     0.844780000000     0.0407292  
H171     H      0.461030000000     0.781830000000     0.843430000000     0.0667897  
H172     H      0.469840000000     0.808690000000     0.905980000000     0.159418   
H173     H      0.465920000000     0.711020000000     0.593760000000     0.036751   
H174     H      0.463980000000     0.711730000000     0.651100000000     0.043464   
H175     H      0.533190000000     0.784750000000     0.652640000000     0.0630994  
H176     H      0.522890000000     0.811220000000     0.590120000000     0.16022    
H177     H      0.093040000000     0.956940000000     0.717880000000     0.0364909  
H178     H      0.150550000000     0.955300000000     0.719260000000     0.0405738  
H179     H      0.151150000000     0.534730000000     0.781080000000     0.0652666  
H180     H      0.088470000000     0.529250000000     0.807850000000     0.159604   
H181     H      0.342850000000     0.966580000000     0.785080000000     0.0357222  
H182     H      0.400000000000     0.966900000000     0.786550000000     0.0401429  
H183     H      0.401770000000     0.533250000000     0.710870000000     0.0645289  
H184     H      0.338960000000     0.560670000000     0.718560000000     0.158019   
H185     H      0.463290000000     0.843070000000     0.712170000000     0.0360556  
H186     H      0.463870000000     0.900390000000     0.711110000000     0.0406851  
H187     H      0.027600000000     0.901250000000     0.789030000000     0.0640874  
H188     H      0.054950000000     0.838950000000     0.782410000000     0.158588   
H189     H      0.464570000000     0.651330000000     0.784100000000     0.0368609  
H190     H      0.465910000000     0.594130000000     0.786320000000     0.0409635  
H191     H      0.031540000000     0.592570000000     0.710010000000     0.0671855  
H192     H      0.057840000000     0.655530000000     0.716120000000     0.160099   
H193     H      0.844280000000     0.287870000000     0.466840000000     0.0376307  
H194     H      0.901700000000     0.289230000000     0.468180000000     0.0458023  
H195     H      0.902280000000     0.208690000000     0.028520000000     0.0633853  
H196     H      0.837850000000     0.187020000000     0.020110000000     0.149792   
H197     H      0.594190000000     0.211020000000     0.464330000000     0.0350743  
H198     H      0.651650000000     0.211670000000     0.462830000000     0.0415473  
H199     H      0.652680000000     0.283170000000     0.033650000000     0.0644601  
H200     H      0.588460000000     0.278160000000     0.056440000000     0.165075   
H201     H      0.782660000000     0.344580000000     0.032200000000     0.0384436  
H202     H      0.783650000000     0.401730000000     0.030980000000     0.0475814  
H203     H      0.705240000000     0.402120000000     0.967870000000     0.0651373  
H204     H      0.683610000000     0.337180000000     0.976190000000     0.152461   
H205     H      0.714420000000     0.152040000000     0.033260000000     0.0379922  
H206     H      0.713140000000     0.094890000000     0.032220000000     0.0411364  
H207     H      0.789900000000     0.093970000000     0.967150000000     0.0628334  
H208     H      0.812060000000     0.158640000000     0.974220000000     0.145226   
H209     H      0.778100000000     0.459120000000     0.402490000000     0.0357486  
H210     H      0.776220000000     0.457550000000     0.345090000000     0.0392869  
H211     H      0.719200000000     0.040480000000     0.344620000000     0.0633987  
H212     H      0.729220000000     0.061940000000     0.409170000000     0.153742   
H213     H      0.711490000000     0.031930000000     0.094350000000     0.0355989  
H214     H      0.712370000000     0.033710000000     0.151750000000     0.0413972  
H215     H      0.782130000000     0.461170000000     0.152970000000     0.0661987  
H216     H      0.808760000000     0.470070000000     0.090180000000     0.159704   
H217     H      0.531980000000     0.211510000000     0.402190000000     0.0346239  
H218     H      0.533630000000     0.212130000000     0.344780000000     0.040622   
H219     H      0.961030000000     0.281830000000     0.343430000000     0.0666426  
H220     H      0.969840000000     0.308690000000     0.405980000000     0.15868    
H221     H      0.965920000000     0.211020000000     0.093750000000     0.0374064  
H222     H      0.963980000000     0.211730000000     0.151100000000     0.0435482  
H223     H      0.033190000000     0.284750000000     0.152640000000     0.0636336  
H224     H      0.022890000000     0.311220000000     0.090120000000     0.16376    
H225     H      0.593040000000     0.456940000000     0.217890000000     0.0359595  
H226     H      0.650550000000     0.455300000000     0.219260000000     0.0407805  
H227     H      0.651150000000     0.034720000000     0.281080000000     0.0649453  
H228     H      0.588470000000     0.029250000000     0.307850000000     0.160655   
H229     H      0.842850000000     0.466580000000     0.285080000000     0.0348687  
H230     H      0.900000000000     0.466900000000     0.286550000000     0.0407121  
H231     H      0.901770000000     0.033250000000     0.210870000000     0.0639262  
H232     H      0.838950000000     0.060670000000     0.218560000000     0.158169   
H233     H      0.963300000000     0.343070000000     0.212170000000     0.0359959  
H234     H      0.963870000000     0.400390000000     0.211110000000     0.0411064  
H235     H      0.527600000000     0.401240000000     0.289030000000     0.0645974  
H236     H      0.554950000000     0.338950000000     0.282410000000     0.158432   
H237     H      0.964570000000     0.151330000000     0.284100000000     0.0368427  
H238     H      0.965910000000     0.094130000000     0.286320000000     0.0417731  
H239     H      0.531540000000     0.092570000000     0.210010000000     0.0682641  
H240     H      0.557840000000     0.155540000000     0.216120000000     0.160048   
H241     H      0.844280000000     0.287870000000     0.966840000000     0.0372168  
H242     H      0.901700000000     0.289230000000     0.968180000000     0.0453457  
H243     H      0.902280000000     0.208690000000     0.528520000000     0.0627379  
H244     H      0.837850000000     0.187020000000     0.520110000000     0.146978   
H245     H      0.594190000000     0.211020000000     0.964330000000     0.0346997  
H246     H      0.651650000000     0.211670000000     0.962830000000     0.0412224  
H247     H      0.652680000000     0.283170000000     0.533650000000     0.0641691  
H248     H      0.588460000000     0.278160000000     0.556440000000     0.16435    
H249     H      0.782660000000     0.344580000000     0.532200000000     0.0380981  
H250     H      0.783650000000     0.401730000000     0.530980000000     0.0474061  
H251     H      0.705240000000     0.402120000000     0.467870000000     0.0653518  
H252     H      0.683610000000     0.337180000000     0.476190000000     0.153999   
H253     H      0.714420000000     0.152040000000     0.533260000000     0.0377209  
H254     H      0.713140000000     0.094890000000     0.532220000000     0.040903   
H255     H      0.789900000000     0.093970000000     0.467150000000     0.0630703  
H256     H      0.812060000000     0.158640000000     0.474220000000     0.147017   
H257     H      0.778100000000     0.459120000000     0.902490000000     0.0353401  
H258     H      0.776220000000     0.457550000000     0.845090000000     0.0391585  
H259     H      0.719200000000     0.040480000000     0.844620000000     0.0633235  
H260     H      0.729220000000     0.061940000000     0.909170000000     0.153509   
H261     H      0.711490000000     0.031930000000     0.594350000000     0.0349076  
H262     H      0.712370000000     0.033710000000     0.651750000000     0.0411632  
H263     H      0.782130000000     0.461170000000     0.652970000000     0.0660027  
H264     H      0.808760000000     0.470070000000     0.590190000000     0.15896    
H265     H      0.531980000000     0.211510000000     0.902190000000     0.0344018  
H266     H      0.533630000000     0.212130000000     0.844780000000     0.0405196  
H267     H      0.961030000000     0.281830000000     0.843430000000     0.0665554  
H268     H      0.969840000000     0.308690000000     0.905980000000     0.158321   
H269     H      0.965920000000     0.211020000000     0.593760000000     0.0365776  
H270     H      0.963980000000     0.211730000000     0.651100000000     0.0432892  
H271     H      0.033190000000     0.284750000000     0.652640000000     0.0634259  
H272     H      0.022890000000     0.311220000000     0.590120000000     0.16294    
H273     H      0.593040000000     0.456940000000     0.717880000000     0.0357448  
H274     H      0.650550000000     0.455300000000     0.719260000000     0.0406106  
H275     H      0.651150000000     0.034720000000     0.781080000000     0.0649009  
H276     H      0.588470000000     0.029250000000     0.807850000000     0.160457   
H277     H      0.842850000000     0.466580000000     0.785080000000     0.0347785  
H278     H      0.900000000000     0.466900000000     0.786550000000     0.0405703  
H279     H      0.901770000000     0.033250000000     0.710870000000     0.0636837  
H280     H      0.838950000000     0.060670000000     0.718560000000     0.158071   
H281     H      0.963300000000     0.343070000000     0.712170000000     0.0358106  
H282     H      0.963870000000     0.400390000000     0.711110000000     0.0408602  
H283     H      0.527600000000     0.401240000000     0.789030000000     0.0644711  
H284     H      0.554950000000     0.338950000000     0.782410000000     0.158362   
H285     H      0.964570000000     0.151330000000     0.784100000000     0.0367553  
H286     H      0.965910000000     0.094130000000     0.786320000000     0.0416429  
H287     H      0.531540000000     0.092570000000     0.710010000000     0.0680223  
H288     H      0.557840000000     0.155540000000     0.716120000000     0.159952   
H289     H      0.844280000000     0.787870000000     0.466840000000     0.0375411  
H290     H      0.901700000000     0.789230000000     0.468180000000     0.0456657  
H291     H      0.902280000000     0.708690000000     0.028520000000     0.063132   
H292     H      0.837850000000     0.687020000000     0.020110000000     0.149544   
H293     H      0.594190000000     0.711020000000     0.464330000000     0.0348602  
H294     H      0.651650000000     0.711670000000     0.462830000000     0.0413922  
H295     H      0.652680000000     0.783170000000     0.033650000000     0.0643729  
H296     H      0.588460000000     0.778160000000     0.056440000000     0.165009   
H297     H      0.782660000000     0.844580000000     0.032200000000     0.0383481  
H298     H      0.783650000000     0.901730000000     0.030980000000     0.0473814  
H299     H      0.705240000000     0.902120000000     0.967870000000     0.0646186  
H300     H      0.683610000000     0.837180000000     0.976190000000     0.152296   
H301     H      0.714420000000     0.652040000000     0.033260000000     0.037763   
H302     H      0.713140000000     0.594890000000     0.032220000000     0.0402987  
H303     H      0.789900000000     0.593970000000     0.967150000000     0.0618731  
H304     H      0.812060000000     0.658640000000     0.974220000000     0.144928   
H305     H      0.778100000000     0.959120000000     0.402490000000     0.0356623  
H306     H      0.776220000000     0.957550000000     0.345090000000     0.0391372  
H307     H      0.719200000000     0.540480000000     0.344620000000     0.0636794  
H308     H      0.729220000000     0.561940000000     0.409170000000     0.152863   
H309     H      0.711490000000     0.531930000000     0.094350000000     0.0349514  
H310     H      0.712370000000     0.533710000000     0.151750000000     0.0410786  
H311     H      0.782130000000     0.961170000000     0.152970000000     0.0658178  
H312     H      0.808760000000     0.970070000000     0.090180000000     0.15839    
H313     H      0.531980000000     0.711510000000     0.402190000000     0.0344113  
H314     H      0.533630000000     0.712130000000     0.344780000000     0.0404682  
H315     H      0.961030000000     0.781830000000     0.343430000000     0.0665621  
H316     H      0.969840000000     0.808690000000     0.405980000000     0.158456   
H317     H      0.965920000000     0.711020000000     0.093750000000     0.0371683  
H318     H      0.963980000000     0.711730000000     0.151100000000     0.0433658  
H319     H      0.033190000000     0.784750000000     0.152640000000     0.0635435  
H320     H      0.022890000000     0.811220000000     0.090120000000     0.163522   
H321     H      0.593040000000     0.956940000000     0.217890000000     0.0358208  
H322     H      0.650550000000     0.955300000000     0.219260000000     0.0405171  
H323     H      0.651150000000     0.534730000000     0.281080000000     0.0651318  
H324     H      0.588470000000     0.529250000000     0.307850000000     0.158992   
H325     H      0.842850000000     0.966580000000     0.285080000000     0.0356862  
H326     H      0.900000000000     0.966900000000     0.286550000000     0.039866   
H327     H      0.901770000000     0.533250000000     0.210870000000     0.0643497  
H328     H      0.838950000000     0.560670000000     0.218560000000     0.15801    
H329     H      0.963300000000     0.843070000000     0.212170000000     0.035859   
H330     H      0.963870000000     0.900390000000     0.211110000000     0.0406472  
H331     H      0.527600000000     0.901250000000     0.289030000000     0.0640992  
H332     H      0.554950000000     0.838950000000     0.282410000000     0.158295   
H333     H      0.964570000000     0.651330000000     0.284100000000     0.0365907  
H334     H      0.965910000000     0.594130000000     0.286320000000     0.0408171  
H335     H      0.531540000000     0.592570000000     0.210010000000     0.0673447  
H336     H      0.557840000000     0.655530000000     0.216120000000     0.159828   
H337     H      0.844280000000     0.787870000000     0.966840000000     0.0371278  
H338     H      0.901700000000     0.789230000000     0.968180000000     0.0452097  
H339     H      0.902280000000     0.708690000000     0.528520000000     0.0624809  
H340     H      0.837850000000     0.687020000000     0.520110000000     0.14672    
H341     H      0.594190000000     0.711020000000     0.964330000000     0.0344846  
H342     H      0.651650000000     0.711670000000     0.962830000000     0.0410663  
H343     H      0.652680000000     0.783170000000     0.533650000000     0.0640821  
H344     H      0.588460000000     0.778160000000     0.556440000000     0.164282   
H345     H      0.782660000000     0.844580000000     0.532200000000     0.0380011  
H346     H      0.783650000000     0.901730000000     0.530980000000     0.0472053  
H347     H      0.705240000000     0.902120000000     0.467870000000     0.0648325  
H348     H      0.683610000000     0.837180000000     0.476190000000     0.153834   
H349     H      0.714420000000     0.652040000000     0.533260000000     0.0374898  
H350     H      0.713140000000     0.594890000000     0.532220000000     0.0400614  
H351     H      0.789900000000     0.593970000000     0.467150000000     0.06211    
H352     H      0.812060000000     0.658640000000     0.474220000000     0.146722   
H353     H      0.778100000000     0.959120000000     0.902490000000     0.0352541  
H354     H      0.776220000000     0.957550000000     0.845090000000     0.0390092  
H355     H      0.719200000000     0.540480000000     0.844620000000     0.0636017  
H356     H      0.729220000000     0.561940000000     0.909170000000     0.152629   
H357     H      0.711490000000     0.531930000000     0.594350000000     0.0342551  
H358     H      0.712370000000     0.533710000000     0.651750000000     0.0408424  
H359     H      0.782130000000     0.961170000000     0.652970000000     0.0656213  
H360     H      0.808760000000     0.970070000000     0.590190000000     0.157644   
H361     H      0.531980000000     0.711510000000     0.902190000000     0.0341888  
H362     H      0.533630000000     0.712130000000     0.844780000000     0.0403655  
H363     H      0.961030000000     0.781830000000     0.843430000000     0.0664749  
H364     H      0.969840000000     0.808690000000     0.905980000000     0.158097   
H365     H      0.965920000000     0.711020000000     0.593760000000     0.0363362  
H366     H      0.963980000000     0.711730000000     0.651100000000     0.0431053  
H367     H      0.033190000000     0.784750000000     0.652640000000     0.0633354  
H368     H      0.022890000000     0.811220000000     0.590120000000     0.1627     
H369     H      0.593040000000     0.956940000000     0.717880000000     0.0356052  
H370     H      0.650550000000     0.955300000000     0.719260000000     0.0403465  
H371     H      0.651150000000     0.534730000000     0.781080000000     0.0650882  
H372     H      0.588470000000     0.529250000000     0.807850000000     0.158791   
H373     H      0.842850000000     0.966580000000     0.785080000000     0.0355984  
H374     H      0.900000000000     0.966900000000     0.786550000000     0.0397242  
H375     H      0.901770000000     0.533250000000     0.710870000000     0.0641056  
H376     H      0.838950000000     0.560670000000     0.718560000000     0.157913   
H377     H      0.963300000000     0.843070000000     0.712170000000     0.0356732  
H378     H      0.963870000000     0.900390000000     0.711110000000     0.0404     
H379     H      0.527600000000     0.901250000000     0.789030000000     0.063973   
H380     H      0.554950000000     0.838950000000     0.782410000000     0.158224   
H381     H      0.964570000000     0.651330000000     0.784100000000     0.0365029  
H382     H      0.965910000000     0.594130000000     0.786320000000     0.0406854  
H383     H      0.531540000000     0.592570000000     0.710010000000     0.0670995  
H384     H      0.557840000000     0.655530000000     0.716120000000     0.159731   
N1       N      0.405920000000     0.248970000000     0.998360000000    -0.172346   
N2       N      0.340440000000     0.248990000000     0.998830000000    -0.210599   
N3       N      0.156100000000     0.247330000000     0.998280000000    -0.170615   
N4       N      0.090630000000     0.248350000000     0.998150000000    -0.212236   
N5       N      0.244570000000     0.405910000000     0.499200000000    -0.167884   
N6       N      0.244960000000     0.340390000000     0.498850000000    -0.208169   
N7       N      0.251440000000     0.090460000000     0.999570000000    -0.170577   
N8       N      0.251330000000     0.156000000000     0.498980000000    -0.207526   
N9       N      0.247620000000     0.498950000000     0.340920000000    -0.168744   
N10      N      0.247690000000     0.499230000000     0.406370000000    -0.209179   
N11      N      0.247260000000     0.497500000000     0.156300000000    -0.167999   
N12      N      0.248170000000     0.997410000000     0.090860000000    -0.213348   
N13      N      0.997390000000     0.246980000000     0.340150000000    -0.170381   
N14      N      0.997400000000     0.248150000000     0.405600000000    -0.213717   
N15      N      0.998570000000     0.248210000000     0.155800000000    -0.170526   
N16      N      0.998800000000     0.249210000000     0.090310000000    -0.212682   
N17      N      0.154850000000     0.995020000000     0.250090000000    -0.171489   
N18      N      0.089300000000     0.995370000000     0.250460000000    -0.21092    
N19      N      0.404890000000     0.999940000000     0.248650000000    -0.171999   
N20      N      0.339390000000     0.001420000000     0.248640000000    -0.205563   
N21      N      0.495790000000     0.404850000000     0.250000000000    -0.168509   
N22      N      0.496960000000     0.339310000000     0.249650000000    -0.209067   
N23      N      0.498810000000     0.089320000000     0.248290000000    -0.167103   
N24      N      0.498990000000     0.154870000000     0.247280000000    -0.208646   
N25      N      0.405920000000     0.248970000000     0.498360000000    -0.16833    
N26      N      0.340440000000     0.248990000000     0.498830000000    -0.207958   
N27      N      0.156100000000     0.247330000000     0.498280000000    -0.167954   
N28      N      0.090630000000     0.248350000000     0.498150000000    -0.208328   
N29      N      0.244570000000     0.405910000000     0.999210000000    -0.170282   
N30      N      0.244960000000     0.340390000000     0.998850000000    -0.21087    
N31      N      0.251440000000     0.090460000000     0.499580000000    -0.168213   
N32      N      0.251330000000     0.156000000000     0.998980000000    -0.210239   
N33      N      0.247620000000     0.498950000000     0.840920000000    -0.168824   
N34      N      0.247690000000     0.499230000000     0.906370000000    -0.209068   
N35      N      0.247260000000     0.497500000000     0.656300000000    -0.168032   
N36      N      0.248170000000     0.997410000000     0.590860000000    -0.214003   
N37      N      0.997390000000     0.246980000000     0.840150000000    -0.170402   
N38      N      0.997400000000     0.248150000000     0.905600000000    -0.213661   
N39      N      0.998570000000     0.248210000000     0.655800000000    -0.170658   
N40      N      0.998800000000     0.249210000000     0.590310000000    -0.21326    
N41      N      0.154850000000     0.995020000000     0.750090000000    -0.171496   
N42      N      0.089300000000     0.995370000000     0.750460000000    -0.21097    
N43      N      0.404890000000     0.999940000000     0.748650000000    -0.172099   
N44      N      0.339390000000     0.001420000000     0.748640000000    -0.205571   
N45      N      0.495790000000     0.404850000000     0.750000000000    -0.168551   
N46      N      0.496960000000     0.339310000000     0.749650000000    -0.209082   
N47      N      0.498810000000     0.089320000000     0.748290000000    -0.167144   
N48      N      0.498990000000     0.154870000000     0.747280000000    -0.208664   
N49      N      0.405920000000     0.748970000000     0.998360000000    -0.1724     
N50      N      0.340440000000     0.748990000000     0.998830000000    -0.210615   
N51      N      0.156100000000     0.747330000000     0.998280000000    -0.170639   
N52      N      0.090630000000     0.748350000000     0.998150000000    -0.212285   
N53      N      0.244570000000     0.905910000000     0.499200000000    -0.1678     
N54      N      0.244960000000     0.840380000000     0.498850000000    -0.208241   
N55      N      0.251440000000     0.590460000000     0.999570000000    -0.171243   
N56      N      0.251330000000     0.656000000000     0.498980000000    -0.207531   
N57      N      0.247620000000     0.998950000000     0.340920000000    -0.171741   
N58      N      0.247690000000     0.999230000000     0.406370000000    -0.211748   
N59      N      0.247260000000     0.997500000000     0.156300000000    -0.170851   
N60      N      0.248170000000     0.497410000000     0.090860000000    -0.209171   
N61      N      0.997390000000     0.746980000000     0.340150000000    -0.170406   
N62      N      0.997400000000     0.748150000000     0.405600000000    -0.213763   
N63      N      0.998570000000     0.748210000000     0.155800000000    -0.170548   
N64      N      0.998800000000     0.749210000000     0.090310000000    -0.212721   
N65      N      0.154850000000     0.495020000000     0.250090000000    -0.168509   
N66      N      0.089300000000     0.495370000000     0.250460000000    -0.208394   
N67      N      0.404890000000     0.499940000000     0.248650000000    -0.168403   
N68      N      0.339390000000     0.501420000000     0.248640000000    -0.209589   
N69      N      0.495790000000     0.904850000000     0.250000000000    -0.168404   
N70      N      0.496960000000     0.839310000000     0.249650000000    -0.209076   
N71      N      0.498810000000     0.589320000000     0.248290000000    -0.16782    
N72      N      0.498990000000     0.654870000000     0.247280000000    -0.20865    
N73      N      0.405920000000     0.748970000000     0.498360000000    -0.168376   
N74      N      0.340440000000     0.748990000000     0.498830000000    -0.207969   
N75      N      0.156100000000     0.747330000000     0.498280000000    -0.167974   
N76      N      0.090630000000     0.748350000000     0.498150000000    -0.208371   
N77      N      0.244570000000     0.905910000000     0.999210000000    -0.1702     
N78      N      0.244960000000     0.840380000000     0.998850000000    -0.21094    
N79      N      0.251440000000     0.590460000000     0.499580000000    -0.168872   
N80      N      0.251330000000     0.656000000000     0.998980000000    -0.210254   
N81      N      0.247620000000     0.998950000000     0.840920000000    -0.171819   
N82      N      0.247690000000     0.999230000000     0.906370000000    -0.211638   
N83      N      0.247260000000     0.997500000000     0.656300000000    -0.170893   
N84      N      0.248170000000     0.497410000000     0.590860000000    -0.209811   
N85      N      0.997390000000     0.746980000000     0.840150000000    -0.170426   
N86      N      0.997400000000     0.748150000000     0.905600000000    -0.213706   
N87      N      0.998570000000     0.748210000000     0.655800000000    -0.17068    
N88      N      0.998800000000     0.749210000000     0.590310000000    -0.2133     
N89      N      0.154850000000     0.495020000000     0.750090000000    -0.168513   
N90      N      0.089300000000     0.495370000000     0.750460000000    -0.208441   
N91      N      0.404890000000     0.499940000000     0.748650000000    -0.168499   
N92      N      0.339390000000     0.501420000000     0.748640000000    -0.209605   
N93      N      0.495790000000     0.904850000000     0.750000000000    -0.168446   
N94      N      0.496960000000     0.839310000000     0.749650000000    -0.209092   
N95      N      0.498810000000     0.589320000000     0.748290000000    -0.167863   
N96      N      0.498990000000     0.654870000000     0.747280000000    -0.208667   
N97      N      0.905920000000     0.248970000000     0.998360000000    -0.17238    
N98      N      0.840440000000     0.248990000000     0.998830000000    -0.210614   
N99      N      0.656100000000     0.247330000000     0.998280000000    -0.170662   
N100     N      0.590630000000     0.248350000000     0.998150000000    -0.212712   
N101     N      0.744570000000     0.405910000000     0.499200000000    -0.167921   
N102     N      0.744960000000     0.340390000000     0.498850000000    -0.208179   
N103     N      0.751440000000     0.090460000000     0.999570000000    -0.170595   
N104     N      0.751330000000     0.156000000000     0.498980000000    -0.207535   
N105     N      0.747620000000     0.498950000000     0.340920000000    -0.168764   
N106     N      0.747690000000     0.499230000000     0.406370000000    -0.209216   
N107     N      0.747260000000     0.497500000000     0.156300000000    -0.168017   
N108     N      0.748170000000     0.997410000000     0.090860000000    -0.213382   
N109     N      0.497400000000     0.246980000000     0.340150000000    -0.167719   
N110     N      0.497400000000     0.248150000000     0.405600000000    -0.209753   
N111     N      0.498570000000     0.248210000000     0.155800000000    -0.167854   
N112     N      0.498800000000     0.249210000000     0.090310000000    -0.208678   
N113     N      0.654850000000     0.995020000000     0.250090000000    -0.171509   
N114     N      0.589300000000     0.995370000000     0.250460000000    -0.211584   
N115     N      0.904890000000     0.999940000000     0.248650000000    -0.171894   
N116     N      0.839390000000     0.001420000000     0.248640000000    -0.205578   
N117     N      0.995790000000     0.404850000000     0.250000000000    -0.170971   
N118     N      0.996960000000     0.339310000000     0.249650000000    -0.211699   
N119     N      0.998810000000     0.089320000000     0.248290000000    -0.169579   
N120     N      0.998990000000     0.154870000000     0.247280000000    -0.211348   
N121     N      0.905920000000     0.248970000000     0.498360000000    -0.168365   
N122     N      0.840440000000     0.248990000000     0.498830000000    -0.207974   
N123     N      0.656100000000     0.247330000000     0.498280000000    -0.167994   
N124     N      0.590630000000     0.248350000000     0.498150000000    -0.208791   
N125     N      0.744570000000     0.405910000000     0.999210000000    -0.170322   
N126     N      0.744960000000     0.340390000000     0.998850000000    -0.210884   
N127     N      0.751440000000     0.090460000000     0.499580000000    -0.168229   
N128     N      0.751330000000     0.156000000000     0.998980000000    -0.210253   
N129     N      0.747620000000     0.498950000000     0.840920000000    -0.168844   
N130     N      0.747690000000     0.499230000000     0.906370000000    -0.209106   
N131     N      0.747260000000     0.497500000000     0.656300000000    -0.168049   
N132     N      0.748170000000     0.997410000000     0.590860000000    -0.214038   
N133     N      0.497400000000     0.246980000000     0.840150000000    -0.16774    
N134     N      0.497400000000     0.248150000000     0.905600000000    -0.209698   
N135     N      0.498570000000     0.248210000000     0.655800000000    -0.167979   
N136     N      0.498800000000     0.249210000000     0.590310000000    -0.209241   
N137     N      0.654850000000     0.995020000000     0.750090000000    -0.171516   
N138     N      0.589300000000     0.995370000000     0.750460000000    -0.211635   
N139     N      0.904890000000     0.999940000000     0.748650000000    -0.171994   
N140     N      0.839390000000     0.001420000000     0.748640000000    -0.205586   
N141     N      0.995790000000     0.404850000000     0.750000000000    -0.171015   
N142     N      0.996960000000     0.339310000000     0.749650000000    -0.211718   
N143     N      0.998810000000     0.089320000000     0.748290000000    -0.169623   
N144     N      0.998990000000     0.154870000000     0.747280000000    -0.21137    
N145     N      0.905920000000     0.748970000000     0.998360000000    -0.172434   
N146     N      0.840440000000     0.748990000000     0.998830000000    -0.21063    
N147     N      0.656100000000     0.747330000000     0.998280000000    -0.170687   
N148     N      0.590630000000     0.748350000000     0.998150000000    -0.212762   
N149     N      0.744570000000     0.905910000000     0.499200000000    -0.167838   
N150     N      0.744960000000     0.840380000000     0.498850000000    -0.208252   
N151     N      0.751440000000     0.590460000000     0.999570000000    -0.171262   
N152     N      0.751330000000     0.656000000000     0.498980000000    -0.20754    
N153     N      0.747620000000     0.998950000000     0.340920000000    -0.171764   
N154     N      0.747690000000     0.999230000000     0.406370000000    -0.211788   
N155     N      0.747260000000     0.997500000000     0.156300000000    -0.170873   
N156     N      0.748170000000     0.497410000000     0.090860000000    -0.209199   
N157     N      0.497400000000     0.746980000000     0.340150000000    -0.16774    
N158     N      0.497400000000     0.748150000000     0.405600000000    -0.209793   
N159     N      0.498570000000     0.748210000000     0.155800000000    -0.167874   
N160     N      0.498800000000     0.749210000000     0.090310000000    -0.208714   
N161     N      0.654850000000     0.495020000000     0.250090000000    -0.168522   
N162     N      0.589300000000     0.495370000000     0.250460000000    -0.209054   
N163     N      0.904890000000     0.499940000000     0.248650000000    -0.168299   
N164     N      0.839390000000     0.501420000000     0.248640000000    -0.209604   
N165     N      0.995790000000     0.904850000000     0.250000000000    -0.170865   
N166     N      0.996960000000     0.839310000000     0.249650000000    -0.211708   
N167     N      0.998810000000     0.589320000000     0.248290000000    -0.170301   
N168     N      0.998990000000     0.654870000000     0.247280000000    -0.211359   
N169     N      0.905920000000     0.748970000000     0.498360000000    -0.168411   
N170     N      0.840440000000     0.748990000000     0.498830000000    -0.207985   
N171     N      0.656100000000     0.747330000000     0.498280000000    -0.168014   
N172     N      0.590630000000     0.748350000000     0.498150000000    -0.208835   
N173     N      0.744570000000     0.905910000000     0.999210000000    -0.17024    
N174     N      0.744960000000     0.840380000000     0.998850000000    -0.210954   
N175     N      0.751440000000     0.590460000000     0.499580000000    -0.168888   
N176     N      0.751330000000     0.656000000000     0.998980000000    -0.210267   
N177     N      0.747620000000     0.998950000000     0.840920000000    -0.171842   
N178     N      0.747690000000     0.999230000000     0.906370000000    -0.211678   
N179     N      0.747260000000     0.997500000000     0.656300000000    -0.170914   
N180     N      0.748170000000     0.497410000000     0.590860000000    -0.20984    
N181     N      0.497400000000     0.746980000000     0.840150000000    -0.167761   
N182     N      0.497400000000     0.748150000000     0.905600000000    -0.209738   
N183     N      0.498570000000     0.748210000000     0.655800000000    -0.167999   
N184     N      0.498800000000     0.749210000000     0.590310000000    -0.209278   
N185     N      0.654850000000     0.495020000000     0.750090000000    -0.168525   
N186     N      0.589300000000     0.495370000000     0.750460000000    -0.209101   
N187     N      0.904890000000     0.499940000000     0.748650000000    -0.168394   
N188     N      0.839390000000     0.501420000000     0.748640000000    -0.20962    
N189     N      0.995790000000     0.904850000000     0.750000000000    -0.17091    
N190     N      0.996960000000     0.839310000000     0.749650000000    -0.211726   
N191     N      0.998810000000     0.589320000000     0.748290000000    -0.170347   
N192     N      0.998990000000     0.654870000000     0.747280000000    -0.21138    
Ni1      Ni     0.497400000000     0.996810000000     0.221400000000     0.981359   
Ni2      Ni     0.496770000000     0.497360000000     0.277160000000     1.00608    
Ni3      Ni     0.470120000000     0.246820000000     0.247760000000     1.00398    
Ni4      Ni     0.025860000000     0.247380000000     0.248190000000     1.00685    
Ni5      Ni     0.248550000000     0.470160000000     0.248830000000     1.00757    
Ni6      Ni     0.245710000000     0.026220000000     0.248360000000     1.01478    
Ni7      Ni     0.219920000000     0.999700000000     0.998730000000     0.978763   
Ni8      Ni     0.275980000000     0.496700000000     0.998490000000     0.991898   
Ni9      Ni     0.998220000000     0.220570000000     0.998070000000     0.996541   
Ni10     Ni     0.998350000000     0.276850000000     0.497740000000     1.00664    
Ni11     Ni     0.248180000000     0.248250000000     0.026490000000     1.01368    
Ni12     Ni     0.248340000000     0.248190000000     0.470740000000     1.00026    
Ni13     Ni     0.497400000000     0.996810000000     0.721400000000     0.980858   
Ni14     Ni     0.496770000000     0.497360000000     0.777160000000     1.00597    
Ni15     Ni     0.470120000000     0.246820000000     0.747760000000     1.00392    
Ni16     Ni     0.025860000000     0.247380000000     0.748190000000     1.00682    
Ni17     Ni     0.248550000000     0.470160000000     0.748840000000     1.00752    
Ni18     Ni     0.245710000000     0.026220000000     0.748360000000     1.01475    
Ni19     Ni     0.219920000000     0.999700000000     0.498730000000     0.994083   
Ni20     Ni     0.275980000000     0.496700000000     0.498490000000     1.00739    
Ni21     Ni     0.998220000000     0.220570000000     0.498070000000     1.00431    
Ni22     Ni     0.998350000000     0.276850000000     0.997740000000     0.998858   
Ni23     Ni     0.248180000000     0.248250000000     0.526480000000     1.00872    
Ni24     Ni     0.248340000000     0.248190000000     0.970740000000     0.990752   
Ni25     Ni     0.497400000000     0.496810000000     0.221400000000     0.997642   
Ni26     Ni     0.496770000000     0.997360000000     0.277160000000     0.989478   
Ni27     Ni     0.470120000000     0.746820000000     0.247760000000     1.00372    
Ni28     Ni     0.025860000000     0.747380000000     0.248190000000     1.00687    
Ni29     Ni     0.248550000000     0.970160000000     0.248830000000     0.998646   
Ni30     Ni     0.245710000000     0.526220000000     0.248360000000     1.00842    
Ni31     Ni     0.219920000000     0.499700000000     0.998730000000     0.996237   
Ni32     Ni     0.275980000000     0.996700000000     0.998490000000     0.984391   
Ni33     Ni     0.998220000000     0.720570000000     0.998070000000     0.996006   
Ni34     Ni     0.998350000000     0.776850000000     0.497740000000     1.00646    
Ni35     Ni     0.248180000000     0.748250000000     0.026490000000     1.01362    
Ni36     Ni     0.248340000000     0.748190000000     0.470740000000     1.00043    
Ni37     Ni     0.497400000000     0.496810000000     0.721400000000     0.997176   
Ni38     Ni     0.496770000000     0.997360000000     0.777160000000     0.989346   
Ni39     Ni     0.470120000000     0.746820000000     0.747760000000     1.00366    
Ni40     Ni     0.025860000000     0.747380000000     0.748190000000     1.00684    
Ni41     Ni     0.248550000000     0.970160000000     0.748840000000     0.998579   
Ni42     Ni     0.245710000000     0.526220000000     0.748360000000     1.00837    
Ni43     Ni     0.219920000000     0.499700000000     0.498730000000     1.01164    
Ni44     Ni     0.275980000000     0.996700000000     0.498490000000     0.999853   
Ni45     Ni     0.998220000000     0.720570000000     0.498070000000     1.00379    
Ni46     Ni     0.998350000000     0.776850000000     0.997740000000     0.99868    
Ni47     Ni     0.248180000000     0.748250000000     0.526480000000     1.00864    
Ni48     Ni     0.248340000000     0.748190000000     0.970740000000     0.990902   
Ni49     Ni     0.997400000000     0.996810000000     0.221400000000     0.96609    
Ni50     Ni     0.996770000000     0.497360000000     0.277160000000     0.990823   
Ni51     Ni     0.970120000000     0.246820000000     0.247760000000     0.994268   
Ni52     Ni     0.525860000000     0.247380000000     0.248190000000     1.00195    
Ni53     Ni     0.748550000000     0.470160000000     0.248830000000     1.00753    
Ni54     Ni     0.745710000000     0.026220000000     0.248360000000     1.01475    
Ni55     Ni     0.719920000000     0.999700000000     0.998730000000     0.978028   
Ni56     Ni     0.775970000000     0.496700000000     0.998490000000     0.991687   
Ni57     Ni     0.498220000000     0.220570000000     0.998070000000     1.00433    
Ni58     Ni     0.498340000000     0.276850000000     0.497740000000     1.01457    
Ni59     Ni     0.748180000000     0.248250000000     0.026490000000     1.01345    
Ni60     Ni     0.748340000000     0.248190000000     0.470740000000     1.00023    
Ni61     Ni     0.997400000000     0.996810000000     0.721400000000     0.965564   
Ni62     Ni     0.996770000000     0.497360000000     0.777160000000     0.990698   
Ni63     Ni     0.970120000000     0.246820000000     0.747760000000     0.994194   
Ni64     Ni     0.525860000000     0.247380000000     0.748190000000     1.00191    
Ni65     Ni     0.748550000000     0.470160000000     0.748840000000     1.00748    
Ni66     Ni     0.745710000000     0.026220000000     0.748360000000     1.01472    
Ni67     Ni     0.719920000000     0.999700000000     0.498730000000     0.993371   
Ni68     Ni     0.775970000000     0.496700000000     0.498490000000     1.00718    
Ni69     Ni     0.498220000000     0.220570000000     0.498070000000     1.01213    
Ni70     Ni     0.498340000000     0.276850000000     0.997740000000     1.00676    
Ni71     Ni     0.748180000000     0.248250000000     0.526480000000     1.00848    
Ni72     Ni     0.748340000000     0.248190000000     0.970740000000     0.990704   
Ni73     Ni     0.997400000000     0.496810000000     0.221400000000     0.982287   
Ni74     Ni     0.996770000000     0.997360000000     0.277160000000     0.974298   
Ni75     Ni     0.970120000000     0.746820000000     0.247760000000     0.993995   
Ni76     Ni     0.525860000000     0.747380000000     0.248190000000     1.00196    
Ni77     Ni     0.748550000000     0.970160000000     0.248830000000     0.99859    
Ni78     Ni     0.745710000000     0.526220000000     0.248360000000     1.00838    
Ni79     Ni     0.719920000000     0.499700000000     0.998730000000     0.995527   
Ni80     Ni     0.775970000000     0.996700000000     0.998490000000     0.984185   
Ni81     Ni     0.498220000000     0.720570000000     0.998070000000     1.0038     
Ni82     Ni     0.498340000000     0.776850000000     0.497740000000     1.0144     
Ni83     Ni     0.748180000000     0.748250000000     0.026490000000     1.01338    
Ni84     Ni     0.748340000000     0.748190000000     0.470740000000     1.0004     
Ni85     Ni     0.997400000000     0.496810000000     0.721400000000     0.981797   
Ni86     Ni     0.996770000000     0.997360000000     0.777160000000     0.974156   
Ni87     Ni     0.970120000000     0.746820000000     0.747760000000     0.993922   
Ni88     Ni     0.525860000000     0.747380000000     0.748190000000     1.00193    
Ni89     Ni     0.748550000000     0.970160000000     0.748840000000     0.998523   
Ni90     Ni     0.745710000000     0.526220000000     0.748360000000     1.00833    
Ni91     Ni     0.719920000000     0.499700000000     0.498730000000     1.01095    
Ni92     Ni     0.775970000000     0.996700000000     0.498490000000     0.999655   
Ni93     Ni     0.498220000000     0.720570000000     0.498070000000     1.01162    
Ni94     Ni     0.498340000000     0.776850000000     0.997740000000     1.00658    
Ni95     Ni     0.748180000000     0.748250000000     0.526480000000     1.0084     
Ni96     Ni     0.748340000000     0.748190000000     0.970740000000     0.990854   
O1       O      0.003200000000     0.041670000000     0.223070000000    -0.419127   
O2       O      0.491560000000     0.451980000000     0.223800000000    -0.442465   
O3       O      0.452470000000     0.002810000000     0.222950000000    -0.425353   
O4       O      0.042300000000     0.490920000000     0.224030000000    -0.436506   
O5       O      0.041770000000     0.000870000000     0.275580000000    -0.420966   
O6       O      0.451800000000     0.493870000000     0.274700000000    -0.44495    
O7       O      0.000370000000     0.452300000000     0.275560000000    -0.430179   
O8       O      0.493230000000     0.042400000000     0.274620000000    -0.434458   
O9       O      0.471830000000     0.251330000000     0.292740000000    -0.441028   
O10      O      0.472540000000     0.242380000000     0.202780000000    -0.441972   
O11      O      0.472660000000     0.201850000000     0.252180000000    -0.445727   
O12      O      0.471760000000     0.291870000000     0.243430000000    -0.445519   
O13      O      0.023270000000     0.292210000000     0.253560000000    -0.433729   
O14      O      0.024320000000     0.202480000000     0.242850000000    -0.432826   
O15      O      0.024030000000     0.252770000000     0.203260000000    -0.432466   
O16      O      0.023520000000     0.242020000000     0.293090000000    -0.433683   
O17      O      0.293280000000     0.473860000000     0.251440000000    -0.450146   
O18      O      0.203060000000     0.470340000000     0.246300000000    -0.441323   
O19      O      0.251140000000     0.471890000000     0.203700000000    -0.442561   
O20      O      0.247040000000     0.472270000000     0.293970000000    -0.444316   
O21      O      0.247700000000     0.024860000000     0.293520000000    -0.437414   
O22      O      0.242730000000     0.023760000000     0.203280000000    -0.434568   
O23      O      0.201040000000     0.022590000000     0.251510000000    -0.439313   
O24      O      0.291120000000     0.026000000000     0.245310000000    -0.441201   
O25      O      0.223700000000     0.044400000000     0.501930000000    -0.437288   
O26      O      0.220050000000     0.454220000000     0.995650000000    -0.436386   
O27      O      0.221780000000     0.997600000000     0.043830000000    -0.440598   
O28      O      0.221880000000     0.502850000000     0.453640000000    -0.433821   
O29      O      0.273710000000     0.994150000000     0.453370000000    -0.446758   
O30      O      0.274380000000     0.498220000000     0.043650000000    -0.43671    
O31      O      0.272250000000     0.452010000000     0.501220000000    -0.444221   
O32      O      0.275850000000     0.042160000000     0.995880000000    -0.432993   
O33      O      0.497930000000     0.222730000000     0.043250000000    -0.441673   
O34      O      0.998520000000     0.222150000000     0.452870000000    -0.449848   
O35      O      0.043400000000     0.222250000000     0.997210000000    -0.443008   
O36      O      0.453050000000     0.222610000000     0.498920000000    -0.444768   
O37      O      0.453150000000     0.275160000000     0.997270000000    -0.44375    
O38      O      0.043530000000     0.274820000000     0.498230000000    -0.425976   
O39      O      0.497580000000     0.274720000000     0.452600000000    -0.443941   
O40      O      0.999060000000     0.275280000000     0.042940000000    -0.436566   
O41      O      0.244630000000     0.203200000000     0.024440000000    -0.437473   
O42      O      0.251750000000     0.293280000000     0.024390000000    -0.439577   
O43      O      0.203200000000     0.252050000000     0.024250000000    -0.436909   
O44      O      0.293170000000     0.244450000000     0.024610000000    -0.426097   
O45      O      0.293220000000     0.254220000000     0.473010000000    -0.441334   
O46      O      0.203460000000     0.242140000000     0.472680000000    -0.437818   
O47      O      0.242080000000     0.293030000000     0.472780000000    -0.429708   
O48      O      0.254540000000     0.203340000000     0.472880000000    -0.429898   
O49      O      0.341460000000     0.205160000000     0.034430000000    -0.280413   
O50      O      0.091920000000     0.289790000000     0.036440000000    -0.277584   
O51      O      0.202000000000     0.341040000000     0.962230000000    -0.279721   
O52      O      0.293120000000     0.154940000000     0.961000000000    -0.279525   
O53      O      0.214030000000     0.044490000000     0.405600000000    -0.280969   
O54      O      0.288700000000     0.458180000000     0.092120000000    -0.28848    
O55      O      0.458040000000     0.288560000000     0.404190000000    -0.288674   
O56      O      0.535830000000     0.291810000000     0.091910000000    -0.288129   
O57      O      0.090600000000     0.038780000000     0.286580000000    -0.285107   
O58      O      0.340890000000     0.040090000000     0.207580000000    -0.284221   
O59      O      0.033860000000     0.340590000000     0.292410000000    -0.284596   
O60      O      0.037060000000     0.153300000000     0.205580000000    -0.283174   
O61      O      0.003200000000     0.041670000000     0.723070000000    -0.419262   
O62      O      0.491560000000     0.451980000000     0.723800000000    -0.442635   
O63      O      0.452470000000     0.002810000000     0.722960000000    -0.425659   
O64      O      0.042300000000     0.490920000000     0.724030000000    -0.436676   
O65      O      0.041770000000     0.000870000000     0.775580000000    -0.421027   
O66      O      0.451800000000     0.493870000000     0.774700000000    -0.445116   
O67      O      0.000370000000     0.452300000000     0.775560000000    -0.430264   
O68      O      0.493230000000     0.042400000000     0.774620000000    -0.434545   
O69      O      0.471830000000     0.251330000000     0.792740000000    -0.441052   
O70      O      0.472540000000     0.242380000000     0.702780000000    -0.441985   
O71      O      0.472660000000     0.201850000000     0.752180000000    -0.445773   
O72      O      0.471760000000     0.291870000000     0.743430000000    -0.445569   
O73      O      0.023270000000     0.292210000000     0.753560000000    -0.433751   
O74      O      0.024320000000     0.202480000000     0.742850000000    -0.43285    
O75      O      0.024030000000     0.252770000000     0.703260000000    -0.432454   
O76      O      0.023520000000     0.242020000000     0.793090000000    -0.433696   
O77      O      0.293280000000     0.473860000000     0.751440000000    -0.450196   
O78      O      0.203060000000     0.470340000000     0.746300000000    -0.441368   
O79      O      0.251140000000     0.471890000000     0.703700000000    -0.44253    
O80      O      0.247040000000     0.472270000000     0.793970000000    -0.444382   
O81      O      0.247700000000     0.024860000000     0.793520000000    -0.437365   
O82      O      0.242730000000     0.023760000000     0.703280000000    -0.434617   
O83      O      0.201040000000     0.022590000000     0.751510000000    -0.43934    
O84      O      0.291120000000     0.026000000000     0.745310000000    -0.441239   
O85      O      0.223700000000     0.044400000000     0.001930000000    -0.423793   
O86      O      0.220050000000     0.454220000000     0.495650000000    -0.439413   
O87      O      0.221780000000     0.997600000000     0.543830000000    -0.447308   
O88      O      0.221880000000     0.502850000000     0.953640000000    -0.432193   
O89      O      0.273710000000     0.994150000000     0.953370000000    -0.445151   
O90      O      0.274380000000     0.498220000000     0.543650000000    -0.443341   
O91      O      0.272250000000     0.452010000000     0.001220000000    -0.430651   
O92      O      0.275850000000     0.042160000000     0.495880000000    -0.435993   
O93      O      0.497930000000     0.222730000000     0.543250000000    -0.447873   
O94      O      0.998520000000     0.222150000000     0.952870000000    -0.448759   
O95      O      0.043400000000     0.222250000000     0.497210000000    -0.442312   
O96      O      0.453050000000     0.222610000000     0.998920000000    -0.446333   
O97      O      0.453150000000     0.275160000000     0.497270000000    -0.443101   
O98      O      0.043530000000     0.274820000000     0.998230000000    -0.427529   
O99      O      0.497580000000     0.274720000000     0.952600000000    -0.442794   
O100     O      0.999060000000     0.275280000000     0.542940000000    -0.442685   
O101     O      0.244630000000     0.203200000000     0.524440000000    -0.444388   
O102     O      0.251750000000     0.293280000000     0.524390000000    -0.446575   
O103     O      0.203200000000     0.252050000000     0.524250000000    -0.443894   
O104     O      0.293170000000     0.244450000000     0.524610000000    -0.433028   
O105     O      0.293220000000     0.254220000000     0.973010000000    -0.438961   
O106     O      0.203460000000     0.242140000000     0.972680000000    -0.435412   
O107     O      0.242080000000     0.293030000000     0.972780000000    -0.427277   
O108     O      0.254540000000     0.203340000000     0.972880000000    -0.427502   
O109     O      0.341460000000     0.205160000000     0.534430000000    -0.280184   
O110     O      0.091920000000     0.289790000000     0.536440000000    -0.278976   
O111     O      0.202000000000     0.341040000000     0.462230000000    -0.279884   
O112     O      0.293120000000     0.154940000000     0.461000000000    -0.279732   
O113     O      0.214030000000     0.044490000000     0.905600000000    -0.281511   
O114     O      0.288700000000     0.458180000000     0.592120000000    -0.289096   
O115     O      0.458040000000     0.288560000000     0.904190000000    -0.288808   
O116     O      0.535830000000     0.291810000000     0.591910000000    -0.288826   
O117     O      0.090600000000     0.038780000000     0.786580000000    -0.285179   
O118     O      0.340890000000     0.040090000000     0.707580000000    -0.284457   
O119     O      0.033860000000     0.340590000000     0.792410000000    -0.284687   
O120     O      0.037060000000     0.153300000000     0.705580000000    -0.283436   
O121     O      0.003200000000     0.541670000000     0.223070000000    -0.426201   
O122     O      0.491560000000     0.951980000000     0.223800000000    -0.44078    
O123     O      0.452470000000     0.502810000000     0.222950000000    -0.439553   
O124     O      0.042300000000     0.990920000000     0.224030000000    -0.433261   
O125     O      0.041770000000     0.500870000000     0.275580000000    -0.435148   
O126     O      0.451800000000     0.993870000000     0.274700000000    -0.441666   
O127     O      0.000370000000     0.952300000000     0.275560000000    -0.428486   
O128     O      0.493230000000     0.542400000000     0.274620000000    -0.441606   
O129     O      0.471830000000     0.751330000000     0.292740000000    -0.441053   
O130     O      0.472540000000     0.742380000000     0.202780000000    -0.442001   
O131     O      0.472660000000     0.701840000000     0.252180000000    -0.445754   
O132     O      0.471760000000     0.791870000000     0.243430000000    -0.445515   
O133     O      0.023270000000     0.792210000000     0.253560000000    -0.433746   
O134     O      0.024320000000     0.702480000000     0.242850000000    -0.432884   
O135     O      0.024030000000     0.752770000000     0.203260000000    -0.432498   
O136     O      0.023520000000     0.742020000000     0.293090000000    -0.433717   
O137     O      0.293280000000     0.973860000000     0.251440000000    -0.456484   
O138     O      0.203060000000     0.970340000000     0.246300000000    -0.439134   
O139     O      0.251140000000     0.971890000000     0.203700000000    -0.440352   
O140     O      0.247040000000     0.972270000000     0.293970000000    -0.441993   
O141     O      0.247700000000     0.524860000000     0.293520000000    -0.444528   
O142     O      0.242730000000     0.523760000000     0.203280000000    -0.441807   
O143     O      0.201040000000     0.522590000000     0.251510000000    -0.446364   
O144     O      0.291120000000     0.526000000000     0.245310000000    -0.439775   
O145     O      0.223700000000     0.544390000000     0.501930000000    -0.444506   
O146     O      0.220050000000     0.954220000000     0.995650000000    -0.434719   
O147     O      0.221780000000     0.497600000000     0.043830000000    -0.440565   
O148     O      0.221880000000     0.002850000000     0.453640000000    -0.419544   
O149     O      0.273710000000     0.494150000000     0.453370000000    -0.448577   
O150     O      0.274380000000     0.998220000000     0.043650000000    -0.437333   
O151     O      0.272250000000     0.952010000000     0.501220000000    -0.442969   
O152     O      0.275850000000     0.542160000000     0.995880000000    -0.43963    
O153     O      0.497930000000     0.722730000000     0.043250000000    -0.441834   
O154     O      0.998520000000     0.722150000000     0.452870000000    -0.45003    
O155     O      0.043400000000     0.722250000000     0.997210000000    -0.44317    
O156     O      0.453050000000     0.722610000000     0.498920000000    -0.444948   
O157     O      0.453150000000     0.775160000000     0.997270000000    -0.443855   
O158     O      0.043530000000     0.774820000000     0.498230000000    -0.42608    
O159     O      0.497580000000     0.774720000000     0.452600000000    -0.444041   
O160     O      0.999060000000     0.775280000000     0.042940000000    -0.43665    
O161     O      0.244630000000     0.703200000000     0.024440000000    -0.437514   
O162     O      0.251750000000     0.793280000000     0.024390000000    -0.43963    
O163     O      0.203200000000     0.752050000000     0.024250000000    -0.43694    
O164     O      0.293170000000     0.744450000000     0.024610000000    -0.42612    
O165     O      0.293220000000     0.754220000000     0.473010000000    -0.441395   
O166     O      0.203460000000     0.742140000000     0.472680000000    -0.437884   
O167     O      0.242080000000     0.793030000000     0.472780000000    -0.429799   
O168     O      0.254540000000     0.703350000000     0.472880000000    -0.430024   
O169     O      0.341460000000     0.705160000000     0.034430000000    -0.280564   
O170     O      0.091920000000     0.789790000000     0.036440000000    -0.277772   
O171     O      0.202000000000     0.841040000000     0.962230000000    -0.279862   
O172     O      0.293120000000     0.654940000000     0.961000000000    -0.27977    
O173     O      0.214030000000     0.544490000000     0.405600000000    -0.281315   
O174     O      0.288700000000     0.958180000000     0.092120000000    -0.288377   
O175     O      0.458040000000     0.788560000000     0.404190000000    -0.288745   
O176     O      0.535830000000     0.791810000000     0.091910000000    -0.288199   
O177     O      0.090600000000     0.538780000000     0.286580000000    -0.284972   
O178     O      0.340890000000     0.540090000000     0.207580000000    -0.286029   
O179     O      0.033860000000     0.840590000000     0.292410000000    -0.284751   
O180     O      0.037060000000     0.653300000000     0.205580000000    -0.28345    
O181     O      0.003200000000     0.541670000000     0.723070000000    -0.426353   
O182     O      0.491560000000     0.951980000000     0.723800000000    -0.440948   
O183     O      0.452470000000     0.502810000000     0.722960000000    -0.439896   
O184     O      0.042300000000     0.990920000000     0.724030000000    -0.433424   
O185     O      0.041770000000     0.500870000000     0.775580000000    -0.435233   
O186     O      0.451800000000     0.993870000000     0.774700000000    -0.441822   
O187     O      0.000370000000     0.952300000000     0.775560000000    -0.428569   
O188     O      0.493230000000     0.542400000000     0.774620000000    -0.441704   
O189     O      0.471830000000     0.751330000000     0.792740000000    -0.441077   
O190     O      0.472540000000     0.742380000000     0.702780000000    -0.442014   
O191     O      0.472660000000     0.701840000000     0.752180000000    -0.445801   
O192     O      0.471760000000     0.791870000000     0.743430000000    -0.445565   
O193     O      0.023270000000     0.792210000000     0.753560000000    -0.433768   
O194     O      0.024320000000     0.702480000000     0.742850000000    -0.432909   
O195     O      0.024030000000     0.752770000000     0.703260000000    -0.432487   
O196     O      0.023520000000     0.742020000000     0.793090000000    -0.433731   
O197     O      0.293280000000     0.973860000000     0.751440000000    -0.456546   
O198     O      0.203060000000     0.970340000000     0.746300000000    -0.439175   
O199     O      0.251140000000     0.971890000000     0.703700000000    -0.440318   
O200     O      0.247040000000     0.972270000000     0.793970000000    -0.442058   
O201     O      0.247700000000     0.524860000000     0.793520000000    -0.444484   
O202     O      0.242730000000     0.523760000000     0.703280000000    -0.441875   
O203     O      0.201040000000     0.522590000000     0.751510000000    -0.446404   
O204     O      0.291120000000     0.526000000000     0.745310000000    -0.43981    
O205     O      0.223700000000     0.544390000000     0.001930000000    -0.430929   
O206     O      0.220050000000     0.954220000000     0.495650000000    -0.437736   
O207     O      0.221780000000     0.497600000000     0.543830000000    -0.44728    
O208     O      0.221880000000     0.002850000000     0.953640000000    -0.417927   
O209     O      0.273710000000     0.494150000000     0.953370000000    -0.446967   
O210     O      0.274380000000     0.998220000000     0.543650000000    -0.44396    
O211     O      0.272250000000     0.952010000000     0.001220000000    -0.429408   
O212     O      0.275850000000     0.542160000000     0.495880000000    -0.442646   
O213     O      0.497930000000     0.722730000000     0.543250000000    -0.448049   
O214     O      0.998520000000     0.722150000000     0.952870000000    -0.44894    
O215     O      0.043400000000     0.722250000000     0.497210000000    -0.442473   
O216     O      0.453050000000     0.722610000000     0.998920000000    -0.446517   
O217     O      0.453150000000     0.775160000000     0.497270000000    -0.443207   
O218     O      0.043530000000     0.774820000000     0.998230000000    -0.427634   
O219     O      0.497580000000     0.774720000000     0.952600000000    -0.442892   
O220     O      0.999060000000     0.775280000000     0.542940000000    -0.442778   
O221     O      0.244630000000     0.703200000000     0.524440000000    -0.444448   
O222     O      0.251750000000     0.793280000000     0.524390000000    -0.446637   
O223     O      0.203200000000     0.752050000000     0.524250000000    -0.443937   
O224     O      0.293170000000     0.744450000000     0.524610000000    -0.433064   
O225     O      0.293220000000     0.754220000000     0.973010000000    -0.439017   
O226     O      0.203460000000     0.742140000000     0.972680000000    -0.435474   
O227     O      0.242080000000     0.793030000000     0.972780000000    -0.427364   
O228     O      0.254540000000     0.703350000000     0.972880000000    -0.427624   
O229     O      0.341460000000     0.705160000000     0.534430000000    -0.280335   
O230     O      0.091920000000     0.789790000000     0.536440000000    -0.279165   
O231     O      0.202000000000     0.841040000000     0.462230000000    -0.280026   
O232     O      0.293120000000     0.654940000000     0.461000000000    -0.279978   
O233     O      0.214030000000     0.544490000000     0.905600000000    -0.281859   
O234     O      0.288700000000     0.958180000000     0.592120000000    -0.288993   
O235     O      0.458040000000     0.788560000000     0.904190000000    -0.288879   
O236     O      0.535830000000     0.791810000000     0.591910000000    -0.288896   
O237     O      0.090600000000     0.538780000000     0.786580000000    -0.285043   
O238     O      0.340890000000     0.540090000000     0.707580000000    -0.286272   
O239     O      0.033860000000     0.840590000000     0.792410000000    -0.284843   
O240     O      0.037060000000     0.653300000000     0.705580000000    -0.283713   
O241     O      0.503200000000     0.041670000000     0.223070000000    -0.432411   
O242     O      0.991560000000     0.451980000000     0.223800000000    -0.439363   
O243     O      0.952470000000     0.002810000000     0.222950000000    -0.42381    
O244     O      0.542300000000     0.490920000000     0.224030000000    -0.443223   
O245     O      0.541780000000     0.000870000000     0.275580000000    -0.427487   
O246     O      0.951800000000     0.493870000000     0.274700000000    -0.443354   
O247     O      0.500370000000     0.452300000000     0.275560000000    -0.44359    
O248     O      0.993230000000     0.042400000000     0.274620000000    -0.431421   
O249     O      0.971830000000     0.251330000000     0.292740000000    -0.438589   
O250     O      0.972540000000     0.242380000000     0.202780000000    -0.439559   
O251     O      0.972670000000     0.201850000000     0.252180000000    -0.443472   
O252     O      0.971760000000     0.291870000000     0.243430000000    -0.443105   
O253     O      0.523270000000     0.292210000000     0.253560000000    -0.440681   
O254     O      0.524320000000     0.202480000000     0.242850000000    -0.439716   
O255     O      0.524030000000     0.252770000000     0.203260000000    -0.439463   
O256     O      0.523520000000     0.242020000000     0.293090000000    -0.440702   
O257     O      0.793280000000     0.473860000000     0.251440000000    -0.450175   
O258     O      0.703060000000     0.470340000000     0.246300000000    -0.441402   
O259     O      0.751140000000     0.471890000000     0.203700000000    -0.442605   
O260     O      0.747040000000     0.472270000000     0.293970000000    -0.444366   
O261     O      0.747700000000     0.024860000000     0.293520000000    -0.43744    
O262     O      0.742730000000     0.023760000000     0.203280000000    -0.434603   
O263     O      0.701040000000     0.022590000000     0.251510000000    -0.439373   
O264     O      0.791120000000     0.026000000000     0.245310000000    -0.441224   
O265     O      0.723700000000     0.044400000000     0.501930000000    -0.437395   
O266     O      0.720050000000     0.454220000000     0.995650000000    -0.436536   
O267     O      0.721780000000     0.997600000000     0.043830000000    -0.440623   
O268     O      0.721880000000     0.502850000000     0.453640000000    -0.433953   
O269     O      0.773710000000     0.994150000000     0.453370000000    -0.44683    
O270     O      0.774380000000     0.498220000000     0.043650000000    -0.436865   
O271     O      0.772250000000     0.452010000000     0.501220000000    -0.444284   
O272     O      0.775850000000     0.042160000000     0.995880000000    -0.433052   
O273     O      0.997930000000     0.222730000000     0.043250000000    -0.442379   
O274     O      0.498520000000     0.222150000000     0.452870000000    -0.448355   
O275     O      0.543400000000     0.222250000000     0.997210000000    -0.449295   
O276     O      0.953050000000     0.222610000000     0.498920000000    -0.443551   
O277     O      0.953150000000     0.275160000000     0.997270000000    -0.442431   
O278     O      0.543530000000     0.274820000000     0.498230000000    -0.432085   
O279     O      0.997570000000     0.274720000000     0.452600000000    -0.444568   
O280     O      0.499060000000     0.275280000000     0.042940000000    -0.434825   
O281     O      0.744630000000     0.203200000000     0.024440000000    -0.437475   
O282     O      0.751750000000     0.293280000000     0.024390000000    -0.439561   
O283     O      0.703200000000     0.252050000000     0.024250000000    -0.436946   
O284     O      0.793180000000     0.244450000000     0.024610000000    -0.426033   
O285     O      0.793220000000     0.254220000000     0.473010000000    -0.441367   
O286     O      0.703460000000     0.242140000000     0.472680000000    -0.437914   
O287     O      0.742080000000     0.293030000000     0.472780000000    -0.429756   
O288     O      0.754550000000     0.203340000000     0.472880000000    -0.429888   
O289     O      0.841460000000     0.205160000000     0.034430000000    -0.280505   
O290     O      0.591920000000     0.289790000000     0.036440000000    -0.278381   
O291     O      0.702000000000     0.341040000000     0.962230000000    -0.279863   
O292     O      0.793120000000     0.154940000000     0.961000000000    -0.279597   
O293     O      0.714030000000     0.044490000000     0.405600000000    -0.281253   
O294     O      0.788700000000     0.458180000000     0.092120000000    -0.288549   
O295     O      0.958030000000     0.288560000000     0.404190000000    -0.28841    
O296     O      0.035830000000     0.291810000000     0.091910000000    -0.28803    
O297     O      0.590600000000     0.038780000000     0.286580000000    -0.286031   
O298     O      0.840890000000     0.040090000000     0.207580000000    -0.284357   
O299     O      0.533860000000     0.340590000000     0.292410000000    -0.285833   
O300     O      0.537060000000     0.153300000000     0.205580000000    -0.284325   
O301     O      0.503200000000     0.041670000000     0.723070000000    -0.43257    
O302     O      0.991560000000     0.451980000000     0.723800000000    -0.43953    
O303     O      0.952470000000     0.002810000000     0.722960000000    -0.424113   
O304     O      0.542300000000     0.490920000000     0.724030000000    -0.443406   
O305     O      0.541780000000     0.000870000000     0.775580000000    -0.427554   
O306     O      0.951800000000     0.493870000000     0.774700000000    -0.443518   
O307     O      0.500370000000     0.452300000000     0.775560000000    -0.443692   
O308     O      0.993230000000     0.042400000000     0.774620000000    -0.431503   
O309     O      0.971830000000     0.251330000000     0.792740000000    -0.438611   
O310     O      0.972540000000     0.242380000000     0.702780000000    -0.439571   
O311     O      0.972670000000     0.201850000000     0.752180000000    -0.443515   
O312     O      0.971760000000     0.291870000000     0.743430000000    -0.443153   
O313     O      0.523270000000     0.292210000000     0.753560000000    -0.440712   
O314     O      0.524320000000     0.202480000000     0.742850000000    -0.43975    
O315     O      0.524030000000     0.252770000000     0.703260000000    -0.439464   
O316     O      0.523520000000     0.242020000000     0.793090000000    -0.44072    
O317     O      0.793280000000     0.473860000000     0.751440000000    -0.450225   
O318     O      0.703060000000     0.470340000000     0.746300000000    -0.441447   
O319     O      0.751140000000     0.471890000000     0.703700000000    -0.442574   
O320     O      0.747040000000     0.472270000000     0.793970000000    -0.444432   
O321     O      0.747700000000     0.024860000000     0.793520000000    -0.437391   
O322     O      0.742730000000     0.023760000000     0.703280000000    -0.434653   
O323     O      0.701040000000     0.022590000000     0.751510000000    -0.439401   
O324     O      0.791120000000     0.026000000000     0.745310000000    -0.441263   
O325     O      0.723700000000     0.044400000000     0.001930000000    -0.423875   
O326     O      0.720050000000     0.454220000000     0.495650000000    -0.439567   
O327     O      0.721780000000     0.997600000000     0.543830000000    -0.447345   
O328     O      0.721880000000     0.502850000000     0.953640000000    -0.432323   
O329     O      0.773710000000     0.994150000000     0.953370000000    -0.445221   
O330     O      0.774380000000     0.498220000000     0.543650000000    -0.443503   
O331     O      0.772250000000     0.452010000000     0.001220000000    -0.430698   
O332     O      0.775850000000     0.042160000000     0.495880000000    -0.436057   
O333     O      0.997930000000     0.222730000000     0.543250000000    -0.448572   
O334     O      0.498520000000     0.222150000000     0.952870000000    -0.447265   
O335     O      0.543400000000     0.222250000000     0.497210000000    -0.448607   
O336     O      0.953050000000     0.222610000000     0.998920000000    -0.445118   
O337     O      0.953150000000     0.275160000000     0.497270000000    -0.44178    
O338     O      0.543530000000     0.274820000000     0.998230000000    -0.433635   
O339     O      0.997570000000     0.274720000000     0.952600000000    -0.443422   
O340     O      0.499060000000     0.275280000000     0.542940000000    -0.440947   
O341     O      0.744630000000     0.203200000000     0.524440000000    -0.4444     
O342     O      0.751750000000     0.293280000000     0.524390000000    -0.446568   
O343     O      0.703200000000     0.252050000000     0.524250000000    -0.443945   
O344     O      0.793180000000     0.244450000000     0.524610000000    -0.432971   
O345     O      0.793220000000     0.254220000000     0.973010000000    -0.438991   
O346     O      0.703460000000     0.242140000000     0.972680000000    -0.435504   
O347     O      0.742080000000     0.293030000000     0.972780000000    -0.427322   
O348     O      0.754550000000     0.203340000000     0.972880000000    -0.427489   
O349     O      0.841460000000     0.205160000000     0.534430000000    -0.280275   
O350     O      0.591920000000     0.289790000000     0.536440000000    -0.27978    
O351     O      0.702000000000     0.341040000000     0.462230000000    -0.280026   
O352     O      0.793120000000     0.154940000000     0.461000000000    -0.279805   
O353     O      0.714030000000     0.044490000000     0.905600000000    -0.281796   
O354     O      0.788700000000     0.458180000000     0.592120000000    -0.289166   
O355     O      0.958030000000     0.288560000000     0.904190000000    -0.288544   
O356     O      0.035830000000     0.291810000000     0.591910000000    -0.288726   
O357     O      0.590600000000     0.038780000000     0.786580000000    -0.286105   
O358     O      0.840890000000     0.040090000000     0.707580000000    -0.284594   
O359     O      0.533860000000     0.340590000000     0.792410000000    -0.285926   
O360     O      0.537060000000     0.153300000000     0.705580000000    -0.284591   
O361     O      0.503200000000     0.541670000000     0.223070000000    -0.439561   
O362     O      0.991560000000     0.951980000000     0.223800000000    -0.437691   
O363     O      0.952470000000     0.502810000000     0.222950000000    -0.437985   
O364     O      0.542300000000     0.990920000000     0.224030000000    -0.439952   
O365     O      0.541780000000     0.500870000000     0.275580000000    -0.441746   
O366     O      0.951800000000     0.993870000000     0.274700000000    -0.440082   
O367     O      0.500370000000     0.952300000000     0.275560000000    -0.441875   
O368     O      0.993230000000     0.542400000000     0.274620000000    -0.438544   
O369     O      0.971830000000     0.751330000000     0.292740000000    -0.438611   
O370     O      0.972540000000     0.742380000000     0.202780000000    -0.439586   
O371     O      0.972670000000     0.701840000000     0.252180000000    -0.443495   
O372     O      0.971760000000     0.791870000000     0.243430000000    -0.4431     
O373     O      0.523270000000     0.792210000000     0.253560000000    -0.440702   
O374     O      0.524320000000     0.702480000000     0.242850000000    -0.439789   
O375     O      0.524030000000     0.752770000000     0.203260000000    -0.439504   
O376     O      0.523520000000     0.742020000000     0.293090000000    -0.440746   
O377     O      0.793280000000     0.973860000000     0.251440000000    -0.456516   
O378     O      0.703060000000     0.970340000000     0.246300000000    -0.439209   
O379     O      0.751140000000     0.971890000000     0.203700000000    -0.440394   
O380     O      0.747040000000     0.972270000000     0.293970000000    -0.442041   
O381     O      0.747700000000     0.524860000000     0.293520000000    -0.444563   
O382     O      0.742730000000     0.523760000000     0.203280000000    -0.441852   
O383     O      0.701040000000     0.522590000000     0.251510000000    -0.446438   
O384     O      0.791120000000     0.526000000000     0.245310000000    -0.439797   
O385     O      0.723700000000     0.544390000000     0.501930000000    -0.444623   
O386     O      0.720050000000     0.954220000000     0.995650000000    -0.434867   
O387     O      0.721780000000     0.497600000000     0.043830000000    -0.44059    
O388     O      0.721880000000     0.002850000000     0.453640000000    -0.419652   
O389     O      0.773710000000     0.494150000000     0.453370000000    -0.448652   
O390     O      0.774380000000     0.998220000000     0.043650000000    -0.437488   
O391     O      0.772250000000     0.952010000000     0.501220000000    -0.443033   
O392     O      0.775850000000     0.542160000000     0.995880000000    -0.439693   
O393     O      0.997930000000     0.722730000000     0.043250000000    -0.44254    
O394     O      0.498520000000     0.722150000000     0.452870000000    -0.448535   
O395     O      0.543400000000     0.722250000000     0.997210000000    -0.449468   
O396     O      0.953050000000     0.722610000000     0.498920000000    -0.443731   
O397     O      0.953150000000     0.775160000000     0.997270000000    -0.442536   
O398     O      0.543530000000     0.774820000000     0.498230000000    -0.432195   
O399     O      0.997570000000     0.774720000000     0.452600000000    -0.444667   
O400     O      0.499060000000     0.775280000000     0.042940000000    -0.43491    
O401     O      0.744630000000     0.703200000000     0.024440000000    -0.437516   
O402     O      0.751750000000     0.793280000000     0.024390000000    -0.439614   
O403     O      0.703200000000     0.752050000000     0.024250000000    -0.436976   
O404     O      0.793180000000     0.744450000000     0.024610000000    -0.426055   
O405     O      0.793220000000     0.754220000000     0.473010000000    -0.441427   
O406     O      0.703460000000     0.742140000000     0.472680000000    -0.437979   
O407     O      0.742080000000     0.793030000000     0.472780000000    -0.429847   
O408     O      0.754550000000     0.703350000000     0.472880000000    -0.430014   
O409     O      0.841460000000     0.705160000000     0.034430000000    -0.280656   
O410     O      0.591920000000     0.789790000000     0.036440000000    -0.278569   
O411     O      0.702000000000     0.841040000000     0.962230000000    -0.280005   
O412     O      0.793120000000     0.654940000000     0.961000000000    -0.279842   
O413     O      0.714030000000     0.544490000000     0.405600000000    -0.281602   
O414     O      0.788700000000     0.958180000000     0.092120000000    -0.288446   
O415     O      0.958030000000     0.788560000000     0.404190000000    -0.28848    
O416     O      0.035830000000     0.791810000000     0.091910000000    -0.2881     
O417     O      0.590600000000     0.538780000000     0.286580000000    -0.285898   
O418     O      0.840890000000     0.540090000000     0.207580000000    -0.286167   
O419     O      0.533860000000     0.840590000000     0.292410000000    -0.285991   
O420     O      0.537060000000     0.653300000000     0.205580000000    -0.284604   
O421     O      0.503200000000     0.541670000000     0.723070000000    -0.439737   
O422     O      0.991560000000     0.951980000000     0.723800000000    -0.437854   
O423     O      0.952470000000     0.502810000000     0.722960000000    -0.438326   
O424     O      0.542300000000     0.990920000000     0.724030000000    -0.440128   
O425     O      0.541780000000     0.500870000000     0.775580000000    -0.441837   
O426     O      0.951800000000     0.993870000000     0.774700000000    -0.440236   
O427     O      0.500370000000     0.952300000000     0.775560000000    -0.441975   
O428     O      0.993230000000     0.542400000000     0.774620000000    -0.438636   
O429     O      0.971830000000     0.751330000000     0.792740000000    -0.438633   
O430     O      0.972540000000     0.742380000000     0.702780000000    -0.439598   
O431     O      0.972670000000     0.701840000000     0.752180000000    -0.443538   
O432     O      0.971760000000     0.791870000000     0.743430000000    -0.443147   
O433     O      0.523270000000     0.792210000000     0.753560000000    -0.440733   
O434     O      0.524320000000     0.702480000000     0.742850000000    -0.439823   
O435     O      0.524030000000     0.752770000000     0.703260000000    -0.439505   
O436     O      0.523520000000     0.742020000000     0.793090000000    -0.440765   
O437     O      0.793280000000     0.973860000000     0.751440000000    -0.456578   
O438     O      0.703060000000     0.970340000000     0.746300000000    -0.439251   
O439     O      0.751140000000     0.971890000000     0.703700000000    -0.44036    
O440     O      0.747040000000     0.972270000000     0.793970000000    -0.442106   
O441     O      0.747700000000     0.524860000000     0.793520000000    -0.444518   
O442     O      0.742730000000     0.523760000000     0.703280000000    -0.44192    
O443     O      0.701040000000     0.522590000000     0.751510000000    -0.446479   
O444     O      0.791120000000     0.526000000000     0.745310000000    -0.439832   
O445     O      0.723700000000     0.544390000000     0.001930000000    -0.431023   
O446     O      0.720050000000     0.954220000000     0.495650000000    -0.437888   
O447     O      0.721780000000     0.497600000000     0.543830000000    -0.447317   
O448     O      0.721880000000     0.002850000000     0.953640000000    -0.418034   
O449     O      0.773710000000     0.494150000000     0.953370000000    -0.447041   
O450     O      0.774380000000     0.998220000000     0.543650000000    -0.444121   
O451     O      0.772250000000     0.952010000000     0.001220000000    -0.429455   
O452     O      0.775850000000     0.542160000000     0.495880000000    -0.442715   
O453     O      0.997930000000     0.722730000000     0.543250000000    -0.448748   
O454     O      0.498520000000     0.722150000000     0.952870000000    -0.447444   
O455     O      0.543400000000     0.722250000000     0.497210000000    -0.448779   
O456     O      0.953050000000     0.722610000000     0.998920000000    -0.445301   
O457     O      0.953150000000     0.775160000000     0.497270000000    -0.441885   
O458     O      0.543530000000     0.774820000000     0.998230000000    -0.433746   
O459     O      0.997570000000     0.774720000000     0.952600000000    -0.443519   
O460     O      0.499060000000     0.775280000000     0.542940000000    -0.441041   
O461     O      0.744630000000     0.703200000000     0.524440000000    -0.44446    
O462     O      0.751750000000     0.793280000000     0.524390000000    -0.446629   
O463     O      0.703200000000     0.752050000000     0.524250000000    -0.443989   
O464     O      0.793180000000     0.744450000000     0.524610000000    -0.433007   
O465     O      0.793220000000     0.754220000000     0.973010000000    -0.439047   
O466     O      0.703460000000     0.742140000000     0.972680000000    -0.435566   
O467     O      0.742080000000     0.793030000000     0.972780000000    -0.427409   
O468     O      0.754550000000     0.703350000000     0.972880000000    -0.427611   
O469     O      0.841460000000     0.705160000000     0.534430000000    -0.280427   
O470     O      0.591920000000     0.789790000000     0.536440000000    -0.279971   
O471     O      0.702000000000     0.841040000000     0.462230000000    -0.280169   
O472     O      0.793120000000     0.654940000000     0.461000000000    -0.28005    
O473     O      0.714030000000     0.544490000000     0.905600000000    -0.282147   
O474     O      0.788700000000     0.958180000000     0.592120000000    -0.289063   
O475     O      0.958030000000     0.788560000000     0.904190000000    -0.288615   
O476     O      0.035830000000     0.791810000000     0.591910000000    -0.288797   
O477     O      0.590600000000     0.538780000000     0.786580000000    -0.285972   
O478     O      0.840890000000     0.540090000000     0.707580000000    -0.28641    
O479     O      0.533860000000     0.840590000000     0.792410000000    -0.286083   
O480     O      0.537060000000     0.653300000000     0.705580000000    -0.284873   


