data_structure

_audit_creation_method RASPA-1.0
_audit_creation_date 2023-5-23
_audit_author_name 'Poobodin Mano'

_cell_length_a    42.5966
_cell_length_b    42.5964
_cell_length_c    42.4853
_cell_angle_alpha 90
_cell_angle_beta  90
_cell_angle_gamma 90
_cell_volume      77088

_symmetry_cell_setting          triclinic
_symmetry_space_group_name_Hall 'P 1'
_symmetry_space_group_name_H-M  'P 1'
_symmetry_Int_Tables_number     1

_symmetry_equiv_pos_as_xyz 'x,y,z'

loop_
_atom_site_label
_atom_site_type_symbol
_atom_site_fract_x
_atom_site_fract_y
_atom_site_fract_z
_atom_site_charge
C1       C      0.005150000000     0.505100000000     0.191770000000     0.4266     
C2       C      0.005160000000     0.005080000000     0.071580000000     0.424047   
C3       C      0.505050000000     0.445070000000     0.131800000000     0.432839   
C4       C      0.505270000000     0.065110000000     0.131780000000     0.432216   
C5       C      0.005160000000     0.255080000000     0.191770000000     0.426873   
C6       C      0.005160000000     0.255100000000     0.071580000000     0.425048   
C7       C      0.005090000000     0.195070000000     0.131780000000     0.424917   
C8       C      0.005230000000     0.315110000000     0.131800000000     0.424765   
C9       C      0.255190000000     0.065140000000     0.131770000000     0.432205   
C10      C      0.255010000000     0.445090000000     0.131790000000     0.432751   
C11      C      0.255100000000     0.005120000000     0.191760000000     0.433773   
C12      C      0.255090000000     0.005110000000     0.071570000000     0.432115   
C13      C      0.255010000000     0.195090000000     0.131770000000     0.432778   
C14      C      0.255190000000     0.315130000000     0.131790000000     0.432877   
C15      C      0.255090000000     0.255130000000     0.071570000000     0.433064   
C16      C      0.255110000000     0.255090000000     0.191760000000     0.434846   
C17      C      0.006270000000     0.445100000000     0.881080000000     0.424414   
C18      C      0.004010000000     0.065130000000     0.881100000000     0.424099   
C19      C      0.005150000000     0.005110000000     0.941270000000     0.423926   
C20      C      0.005120000000     0.005130000000     0.821080000000     0.425517   
C21      C      0.006270000000     0.315130000000     0.881090000000     0.424626   
C22      C      0.004010000000     0.195100000000     0.881100000000     0.424639   
C23      C      0.005150000000     0.255120000000     0.941280000000     0.425016   
C24      C      0.005140000000     0.255110000000     0.821090000000     0.426694   
C25      C      0.255070000000     0.505150000000     0.821060000000     0.434753   
C26      C      0.255080000000     0.505130000000     0.941260000000     0.432997   
C27      C      0.254980000000     0.065170000000     0.881050000000     0.432151   
C28      C      0.255170000000     0.445120000000     0.881040000000     0.432742   
C29      C      0.255080000000     0.255130000000     0.821070000000     0.434921   
C30      C      0.255080000000     0.255150000000     0.941260000000     0.433138   
C31      C      0.255170000000     0.195120000000     0.881060000000     0.432697   
C32      C      0.254990000000     0.315170000000     0.881040000000     0.432687   
C33      C      0.445080000000     0.505050000000     0.381040000000     0.432631   
C34      C      0.065130000000     0.505230000000     0.381060000000     0.432232   
C35      C      0.005090000000     0.505140000000     0.441260000000     0.432128   
C36      C      0.005120000000     0.505120000000     0.321070000000     0.433843   
C37      C      0.005160000000     0.255060000000     0.321070000000     0.434005   
C38      C      0.005150000000     0.255050000000     0.441260000000     0.432175   
C39      C      0.065180000000     0.255120000000     0.381050000000     0.432341   
C40      C      0.445130000000     0.254990000000     0.381040000000     0.432507   
C41      C      0.255110000000     0.005140000000     0.441260000000     0.425192   
C42      C      0.255110000000     0.005130000000     0.321060000000     0.426653   
C43      C      0.315130000000     0.005230000000     0.381040000000     0.424596   
C44      C      0.195080000000     0.005040000000     0.381050000000     0.424624   
C45      C      0.315180000000     0.255160000000     0.381040000000     0.432671   
C46      C      0.195130000000     0.254940000000     0.381050000000     0.43265    
C47      C      0.255140000000     0.255060000000     0.321060000000     0.434848   
C48      C      0.255160000000     0.255050000000     0.441250000000     0.433391   
C49      C      0.005070000000     0.005150000000     0.571570000000     0.424047   
C50      C      0.005080000000     0.005150000000     0.691770000000     0.42544    
C51      C      0.445050000000     0.005240000000     0.631790000000     0.424681   
C52      C      0.065100000000     0.005070000000     0.631780000000     0.424176   
C53      C      0.065140000000     0.256200000000     0.631740000000     0.432294   
C54      C      0.445110000000     0.253940000000     0.631750000000     0.432709   
C55      C      0.005130000000     0.255080000000     0.691750000000     0.433753   
C56      C      0.505130000000     0.255060000000     0.571560000000     0.433118   
C57      C      0.255070000000     0.505160000000     0.691760000000     0.434728   
C58      C      0.255080000000     0.505150000000     0.571570000000     0.433115   
C59      C      0.195050000000     0.505250000000     0.631770000000     0.432749   
C60      C      0.315100000000     0.505060000000     0.631790000000     0.432534   
C61      C      0.255110000000     0.255090000000     0.691750000000     0.43461    
C62      C      0.255140000000     0.255060000000     0.571560000000     0.432951   
C63      C      0.195110000000     0.256200000000     0.631740000000     0.432628   
C64      C      0.315140000000     0.253940000000     0.631750000000     0.432595   
C65      C      0.396480000000     0.281230000000     0.630370000000     0.0312641  
C66      C      0.396560000000     0.225930000000     0.633150000000     0.0315085  
C67      C      0.363690000000     0.225930000000     0.633150000000     0.0315052  
C68      C      0.363770000000     0.281220000000     0.630370000000     0.0313904  
C69      C      0.113770000000     0.228910000000     0.630370000000     0.03125    
C70      C      0.113690000000     0.284210000000     0.633130000000     0.0314138  
C71      C      0.146560000000     0.284210000000     0.633120000000     0.0316001  
C72      C      0.146480000000     0.228920000000     0.630370000000     0.0312944  
C73      C      0.396430000000     0.032880000000     0.631910000000     0.0303994  
C74      C      0.396500000000     0.477510000000     0.631810000000     0.0313794  
C75      C      0.363710000000     0.477420000000     0.631920000000     0.0314229  
C76      C      0.363650000000     0.032790000000     0.631800000000     0.0303758  
C77      C      0.113650000000     0.032800000000     0.631790000000     0.0302764  
C78      C      0.113710000000     0.477430000000     0.631900000000     0.0314469  
C79      C      0.146500000000     0.477520000000     0.631780000000     0.0314147  
C80      C      0.146430000000     0.032890000000     0.631910000000     0.0303017  
C81      C      0.255030000000     0.227370000000     0.489970000000     0.0317467  
C82      C      0.255290000000     0.282730000000     0.489970000000     0.0318189  
C83      C      0.255200000000     0.282740000000     0.522840000000     0.0316036  
C84      C      0.255090000000     0.227370000000     0.522840000000     0.031724   
C85      C      0.255050000000     0.477460000000     0.489980000000     0.0317088  
C86      C      0.255140000000     0.032830000000     0.489970000000     0.0305943  
C87      C      0.255050000000     0.032830000000     0.522850000000     0.0306962  
C88      C      0.255130000000     0.477470000000     0.522850000000     0.0317525  
C89      C      0.504270000000     0.227380000000     0.489980000000     0.0316376  
C90      C      0.006010000000     0.282720000000     0.489970000000     0.0311827  
C91      C      0.005990000000     0.282730000000     0.522840000000     0.031077   
C92      C      0.504270000000     0.227390000000     0.522850000000     0.0317385  
C93      C      0.396580000000     0.282720000000     0.381050000000     0.0313886  
C94      C      0.396510000000     0.227350000000     0.380880000000     0.0314402  
C95      C      0.363730000000     0.227440000000     0.380990000000     0.0313954  
C96      C      0.363800000000     0.282810000000     0.380930000000     0.0314658  
C97      C      0.146580000000     0.282660000000     0.381010000000     0.0314891  
C98      C      0.146510000000     0.227300000000     0.380950000000     0.031428   
C99      C      0.113730000000     0.227380000000     0.381070000000     0.0313489  
C100     C      0.113800000000     0.282750000000     0.380900000000     0.031348   
C101     C      0.005030000000     0.477470000000     0.489980000000     0.0311166  
C102     C      0.505130000000     0.032830000000     0.489980000000     0.0307115  
C103     C      0.505030000000     0.032840000000     0.522850000000     0.0305137  
C104     C      0.005110000000     0.477470000000     0.522850000000     0.031156   
C105     C      0.396530000000     0.032770000000     0.381020000000     0.0304152  
C106     C      0.396460000000     0.477410000000     0.380910000000     0.0314068  
C107     C      0.363680000000     0.477500000000     0.381030000000     0.0314404  
C108     C      0.363750000000     0.032860000000     0.380910000000     0.0303704  
C109     C      0.113680000000     0.477500000000     0.381050000000     0.0313963  
C110     C      0.113750000000     0.032860000000     0.380930000000     0.0302364  
C111     C      0.146530000000     0.032770000000     0.381040000000     0.0304316  
C112     C      0.146460000000     0.477410000000     0.380930000000     0.0313934  
C113     C      0.235880000000     0.235090000000     0.739990000000     0.0334018  
C114     C      0.274320000000     0.275120000000     0.739990000000     0.0335255  
C115     C      0.275490000000     0.273930000000     0.772820000000     0.0335038  
C116     C      0.234700000000     0.236310000000     0.772830000000     0.0336056  
C117     C      0.275280000000     0.024170000000     0.772830000000     0.0326452  
C118     C      0.234860000000     0.486150000000     0.772830000000     0.0335053  
C119     C      0.236050000000     0.484950000000     0.740000000000     0.0334444  
C120     C      0.274070000000     0.025370000000     0.740000000000     0.0321946  
C121     C      0.282810000000     0.396500000000     0.880900000000     0.0314144  
C122     C      0.227440000000     0.396570000000     0.881030000000     0.0314545  
C123     C      0.227350000000     0.363790000000     0.880920000000     0.031443   
C124     C      0.282720000000     0.363720000000     0.881010000000     0.0313838  
C125     C      0.282710000000     0.113720000000     0.881050000000     0.0314099  
C126     C      0.227340000000     0.113790000000     0.880930000000     0.0313437  
C127     C      0.227430000000     0.146570000000     0.881040000000     0.0313816  
C128     C      0.282800000000     0.146500000000     0.880940000000     0.031459   
C129     C      0.025330000000     0.236080000000     0.772840000000     0.0322278  
C130     C      0.484930000000     0.274120000000     0.772830000000     0.0334619  
C131     C      0.486110000000     0.275290000000     0.740000000000     0.0334409  
C132     C      0.024150000000     0.234890000000     0.740010000000     0.0326453  
C133     C      0.485090000000     0.485920000000     0.772850000000     0.0334547  
C134     C      0.025120000000     0.024360000000     0.772840000000     0.0313462  
C135     C      0.023900000000     0.025540000000     0.740010000000     0.0314634  
C136     C      0.486280000000     0.484750000000     0.740010000000     0.0334877  
C137     C      0.034280000000     0.396550000000     0.879680000000     0.0303663  
C138     C      0.978990000000     0.396470000000     0.882460000000     0.0361276  
C139     C      0.978990000000     0.363770000000     0.882460000000     0.0361129  
C140     C      0.034280000000     0.363680000000     0.879680000000     0.0304086  
C141     C      0.031290000000     0.113760000000     0.882470000000     0.0303242  
C142     C      0.476000000000     0.113690000000     0.879710000000     0.0315346  
C143     C      0.476000000000     0.146550000000     0.879710000000     0.0314417  
C144     C      0.031300000000     0.146470000000     0.882480000000     0.0302001  
C145     C      0.234910000000     0.274090000000     0.240010000000     0.0334349  
C146     C      0.275330000000     0.236070000000     0.239980000000     0.0335482  
C147     C      0.274140000000     0.234860000000     0.272820000000     0.0335172  
C148     C      0.236120000000     0.275280000000     0.272840000000     0.033527   
C149     C      0.227400000000     0.255090000000     0.022850000000     0.0317363  
C150     C      0.282770000000     0.255190000000     0.022850000000     0.0316103  
C151     C      0.282760000000     0.255110000000     0.989980000000     0.0318101  
C152     C      0.227400000000     0.255190000000     0.989980000000     0.0317316  
C153     C      0.234890000000     0.024130000000     0.239990000000     0.0326811  
C154     C      0.275310000000     0.486110000000     0.240000000000     0.0334831  
C155     C      0.274110000000     0.484920000000     0.272830000000     0.033529   
C156     C      0.236090000000     0.025340000000     0.272830000000     0.0321791  
C157     C      0.227410000000     0.505070000000     0.022850000000     0.0317765  
C158     C      0.282770000000     0.005160000000     0.022850000000     0.0311495  
C159     C      0.282770000000     0.005080000000     0.989970000000     0.0311847  
C160     C      0.227400000000     0.505160000000     0.989980000000     0.0315832  
C161     C      0.227460000000     0.363690000000     0.131810000000     0.0313841  
C162     C      0.282830000000     0.363750000000     0.131920000000     0.0314577  
C163     C      0.282740000000     0.396540000000     0.131810000000     0.0314164  
C164     C      0.227370000000     0.396470000000     0.131930000000     0.0314421  
C165     C      0.227460000000     0.113690000000     0.131790000000     0.0313484  
C166     C      0.282830000000     0.113750000000     0.131890000000     0.0314104  
C167     C      0.282740000000     0.146540000000     0.131780000000     0.0314007  
C168     C      0.227370000000     0.146470000000     0.131900000000     0.0314243  
C169     C      0.025370000000     0.236060000000     0.240000000000     0.0322617  
C170     C      0.484950000000     0.274080000000     0.240010000000     0.0334473  
C171     C      0.486150000000     0.275270000000     0.272840000000     0.0335355  
C172     C      0.024170000000     0.234850000000     0.272830000000     0.0325997  
C173     C      0.477480000000     0.254240000000     0.022870000000     0.0316505  
C174     C      0.032820000000     0.255980000000     0.022860000000     0.0306842  
C175     C      0.032820000000     0.255980000000     0.989990000000     0.0306268  
C176     C      0.477480000000     0.254260000000     0.990000000000     0.0316944  
C177     C      0.484940000000     0.024130000000     0.240000000000     0.0326053  
C178     C      0.025350000000     0.486100000000     0.240010000000     0.0322441  
C179     C      0.024140000000     0.484900000000     0.272850000000     0.0326363  
C180     C      0.486130000000     0.025330000000     0.272830000000     0.0322461  
C181     C      0.032840000000     0.505220000000     0.022860000000     0.0306237  
C182     C      0.477480000000     0.004960000000     0.022860000000     0.0311407  
C183     C      0.477480000000     0.005040000000     0.989990000000     0.031112   
C184     C      0.032840000000     0.505150000000     0.989990000000     0.0306377  
C185     C      0.477400000000     0.396450000000     0.131910000000     0.0314492  
C186     C      0.032770000000     0.396510000000     0.131850000000     0.0303104  
C187     C      0.032860000000     0.363730000000     0.131960000000     0.0303607  
C188     C      0.477490000000     0.363660000000     0.131790000000     0.0314155  
C189     C      0.032920000000     0.113730000000     0.131880000000     0.0302782  
C190     C      0.477550000000     0.113670000000     0.131820000000     0.0313389  
C191     C      0.477460000000     0.146450000000     0.131930000000     0.0314269  
C192     C      0.032830000000     0.146520000000     0.131770000000     0.0303576  
C193     C      0.005150000000     0.005100000000     0.191770000000     0.425589   
C194     C      0.005160000000     0.505080000000     0.071580000000     0.424981   
C195     C      0.505050000000     0.945070000000     0.131800000000     0.4321     
C196     C      0.505270000000     0.565110000000     0.131780000000     0.432727   
C197     C      0.005160000000     0.755080000000     0.191770000000     0.426878   
C198     C      0.005160000000     0.755100000000     0.071580000000     0.425086   
C199     C      0.005090000000     0.695070000000     0.131780000000     0.424892   
C200     C      0.005230000000     0.815110000000     0.131800000000     0.42487    
C201     C      0.255190000000     0.565130000000     0.131770000000     0.43275    
C202     C      0.255010000000     0.945090000000     0.131790000000     0.432001   
C203     C      0.255100000000     0.505120000000     0.191760000000     0.434799   
C204     C      0.255090000000     0.505110000000     0.071570000000     0.433072   
C205     C      0.255010000000     0.695090000000     0.131770000000     0.432763   
C206     C      0.255190000000     0.815130000000     0.131790000000     0.432908   
C207     C      0.255090000000     0.755130000000     0.071570000000     0.433106   
C208     C      0.255110000000     0.755090000000     0.191760000000     0.434855   
C209     C      0.006270000000     0.945100000000     0.881080000000     0.423679   
C210     C      0.004010000000     0.565130000000     0.881100000000     0.424535   
C211     C      0.005150000000     0.505110000000     0.941270000000     0.424862   
C212     C      0.005120000000     0.505130000000     0.821080000000     0.426523   
C213     C      0.006270000000     0.815130000000     0.881090000000     0.42473    
C214     C      0.004010000000     0.695100000000     0.881100000000     0.424616   
C215     C      0.005150000000     0.755120000000     0.941280000000     0.425055   
C216     C      0.005140000000     0.755110000000     0.821090000000     0.4267     
C217     C      0.255070000000     0.005150000000     0.821060000000     0.433713   
C218     C      0.255080000000     0.005130000000     0.941260000000     0.432038   
C219     C      0.254980000000     0.565170000000     0.881050000000     0.432605   
C220     C      0.255170000000     0.945120000000     0.881040000000     0.431992   
C221     C      0.255080000000     0.755130000000     0.821070000000     0.434915   
C222     C      0.255080000000     0.755150000000     0.941260000000     0.433165   
C223     C      0.255170000000     0.695120000000     0.881060000000     0.432737   
C224     C      0.254990000000     0.815170000000     0.881040000000     0.432775   
C225     C      0.445080000000     0.005040000000     0.381040000000     0.424604   
C226     C      0.065130000000     0.005230000000     0.381060000000     0.424135   
C227     C      0.005090000000     0.005140000000     0.441260000000     0.424082   
C228     C      0.005120000000     0.005130000000     0.321070000000     0.425737   
C229     C      0.005160000000     0.755060000000     0.321070000000     0.433988   
C230     C      0.005150000000     0.755050000000     0.441260000000     0.432152   
C231     C      0.065180000000     0.755120000000     0.381050000000     0.432328   
C232     C      0.445130000000     0.754990000000     0.381040000000     0.432486   
C233     C      0.255110000000     0.505140000000     0.441260000000     0.432998   
C234     C      0.255100000000     0.505130000000     0.321060000000     0.434783   
C235     C      0.315130000000     0.505230000000     0.381040000000     0.432707   
C236     C      0.195080000000     0.505050000000     0.381050000000     0.432638   
C237     C      0.315180000000     0.755160000000     0.381040000000     0.432651   
C238     C      0.195130000000     0.754940000000     0.381050000000     0.432627   
C239     C      0.255140000000     0.755060000000     0.321060000000     0.434831   
C240     C      0.255160000000     0.755050000000     0.441250000000     0.433368   
C241     C      0.005070000000     0.505160000000     0.571570000000     0.4321     
C242     C      0.005080000000     0.505150000000     0.691770000000     0.433544   
C243     C      0.445050000000     0.505240000000     0.631790000000     0.432795   
C244     C      0.065100000000     0.505070000000     0.631780000000     0.432186   
C245     C      0.065140000000     0.756200000000     0.631740000000     0.432281   
C246     C      0.445110000000     0.753940000000     0.631750000000     0.432688   
C247     C      0.005130000000     0.755080000000     0.691750000000     0.433737   
C248     C      0.505130000000     0.755060000000     0.571560000000     0.433096   
C249     C      0.255070000000     0.005160000000     0.691760000000     0.426603   
C250     C      0.255080000000     0.005150000000     0.571570000000     0.425047   
C251     C      0.195050000000     0.005250000000     0.631770000000     0.424642   
C252     C      0.315100000000     0.005060000000     0.631790000000     0.424511   
C253     C      0.255110000000     0.755090000000     0.691750000000     0.434593   
C254     C      0.255140000000     0.755060000000     0.571560000000     0.432928   
C255     C      0.195110000000     0.756200000000     0.631740000000     0.432608   
C256     C      0.315140000000     0.753940000000     0.631750000000     0.432574   
C257     C      0.396480000000     0.781230000000     0.630370000000     0.0312707  
C258     C      0.396560000000     0.725930000000     0.633150000000     0.0314963  
C259     C      0.363690000000     0.725930000000     0.633150000000     0.0314933  
C260     C      0.363770000000     0.781220000000     0.630370000000     0.0313964  
C261     C      0.113770000000     0.728920000000     0.630370000000     0.031351   
C262     C      0.113690000000     0.784210000000     0.633130000000     0.0314307  
C263     C      0.146560000000     0.784210000000     0.633120000000     0.0316029  
C264     C      0.146480000000     0.728920000000     0.630370000000     0.0312232  
C265     C      0.396430000000     0.532880000000     0.631910000000     0.031477   
C266     C      0.396500000000     0.977510000000     0.631810000000     0.0361992  
C267     C      0.363710000000     0.977420000000     0.631920000000     0.0362948  
C268     C      0.363650000000     0.532790000000     0.631800000000     0.0314257  
C269     C      0.113650000000     0.532800000000     0.631790000000     0.0313259  
C270     C      0.113710000000     0.977430000000     0.631900000000     0.0363122  
C271     C      0.146500000000     0.977520000000     0.631780000000     0.0362298  
C272     C      0.146430000000     0.532890000000     0.631910000000     0.0313803  
C273     C      0.255030000000     0.727370000000     0.489970000000     0.0317313  
C274     C      0.255290000000     0.782730000000     0.489970000000     0.03182    
C275     C      0.255200000000     0.782740000000     0.522840000000     0.0316047  
C276     C      0.255100000000     0.727370000000     0.522840000000     0.0317093  
C277     C      0.255050000000     0.977460000000     0.489980000000     0.0365279  
C278     C      0.255140000000     0.532830000000     0.489970000000     0.0316817  
C279     C      0.255050000000     0.532830000000     0.522850000000     0.0317531  
C280     C      0.255130000000     0.977470000000     0.522850000000     0.036597   
C281     C      0.504270000000     0.727380000000     0.489980000000     0.0316224  
C282     C      0.006010000000     0.782720000000     0.489970000000     0.0311836  
C283     C      0.005990000000     0.782730000000     0.522840000000     0.0310778  
C284     C      0.504270000000     0.727390000000     0.522850000000     0.0317234  
C285     C      0.396580000000     0.782720000000     0.381050000000     0.0313961  
C286     C      0.396510000000     0.727350000000     0.380880000000     0.0314287  
C287     C      0.363730000000     0.727440000000     0.380990000000     0.0313841  
C288     C      0.363800000000     0.782810000000     0.380930000000     0.0314754  
C289     C      0.146580000000     0.782660000000     0.381010000000     0.0314879  
C290     C      0.146510000000     0.727300000000     0.380950000000     0.031357   
C291     C      0.113730000000     0.727390000000     0.381070000000     0.0314477  
C292     C      0.113800000000     0.782750000000     0.380900000000     0.0313635  
C293     C      0.005030000000     0.977470000000     0.489980000000     0.0359596  
C294     C      0.505130000000     0.532830000000     0.489980000000     0.0317255  
C295     C      0.505030000000     0.532830000000     0.522850000000     0.0316772  
C296     C      0.005110000000     0.977470000000     0.522850000000     0.0359632  
C297     C      0.396530000000     0.532780000000     0.381020000000     0.0313422  
C298     C      0.396460000000     0.977410000000     0.380910000000     0.0362678  
C299     C      0.363680000000     0.977500000000     0.381030000000     0.0362532  
C300     C      0.363750000000     0.532860000000     0.380910000000     0.0315146  
C301     C      0.113680000000     0.977500000000     0.381050000000     0.0362846  
C302     C      0.113750000000     0.532860000000     0.380930000000     0.0314579  
C303     C      0.146530000000     0.532780000000     0.381040000000     0.0313244  
C304     C      0.146460000000     0.977410000000     0.380930000000     0.0362192  
C305     C      0.235880000000     0.735090000000     0.739990000000     0.0334045  
C306     C      0.274320000000     0.775120000000     0.739990000000     0.033554   
C307     C      0.275490000000     0.773930000000     0.772820000000     0.0335268  
C308     C      0.234700000000     0.736310000000     0.772830000000     0.0336144  
C309     C      0.275270000000     0.524170000000     0.772830000000     0.0336179  
C310     C      0.234860000000     0.986150000000     0.772830000000     0.0390892  
C311     C      0.236050000000     0.984950000000     0.740000000000     0.0381932  
C312     C      0.274080000000     0.525370000000     0.740000000000     0.0333306  
C313     C      0.282810000000     0.896500000000     0.880900000000     0.0318056  
C314     C      0.227440000000     0.896570000000     0.881030000000     0.0318263  
C315     C      0.227350000000     0.863790000000     0.880920000000     0.0317283  
C316     C      0.282720000000     0.863720000000     0.881010000000     0.0316743  
C317     C      0.282710000000     0.613720000000     0.881050000000     0.0314293  
C318     C      0.227340000000     0.613790000000     0.880930000000     0.0313704  
C319     C      0.227430000000     0.646570000000     0.881040000000     0.0313808  
C320     C      0.282800000000     0.646500000000     0.880940000000     0.0314486  
C321     C      0.025330000000     0.736080000000     0.772840000000     0.032239   
C322     C      0.484930000000     0.774120000000     0.772830000000     0.033486   
C323     C      0.486110000000     0.775290000000     0.740000000000     0.0334711  
C324     C      0.024150000000     0.734890000000     0.740010000000     0.032649   
C325     C      0.485090000000     0.985920000000     0.772850000000     0.0390502  
C326     C      0.025120000000     0.524360000000     0.772840000000     0.032193   
C327     C      0.023900000000     0.525540000000     0.740010000000     0.0327142  
C328     C      0.486280000000     0.984750000000     0.740010000000     0.0382265  
C329     C      0.034280000000     0.896550000000     0.879680000000     0.0307652  
C330     C      0.978990000000     0.896470000000     0.882460000000     0.0364849  
C331     C      0.978990000000     0.863770000000     0.882460000000     0.036387   
C332     C      0.034280000000     0.863690000000     0.879680000000     0.0306664  
C333     C      0.031290000000     0.613770000000     0.882470000000     0.0303068  
C334     C      0.476000000000     0.613690000000     0.879710000000     0.031561   
C335     C      0.476000000000     0.646550000000     0.879710000000     0.0314365  
C336     C      0.031300000000     0.646470000000     0.882480000000     0.0301928  
C337     C      0.234910000000     0.774090000000     0.240010000000     0.0334587  
C338     C      0.275330000000     0.736070000000     0.239980000000     0.033558   
C339     C      0.274140000000     0.734860000000     0.272820000000     0.0335186  
C340     C      0.236120000000     0.775280000000     0.272840000000     0.0335551  
C341     C      0.227400000000     0.755090000000     0.022850000000     0.0318056  
C342     C      0.282770000000     0.755190000000     0.022850000000     0.0316812  
C343     C      0.282760000000     0.755110000000     0.989980000000     0.0318784  
C344     C      0.227400000000     0.755190000000     0.989980000000     0.0318004  
C345     C      0.234890000000     0.524140000000     0.239990000000     0.0334317  
C346     C      0.275310000000     0.986110000000     0.240000000000     0.039106   
C347     C      0.274120000000     0.984920000000     0.272830000000     0.0382251  
C348     C      0.236090000000     0.525340000000     0.272830000000     0.0335269  
C349     C      0.227410000000     0.005070000000     0.022850000000     0.0312072  
C350     C      0.282770000000     0.505160000000     0.022850000000     0.0317173  
C351     C      0.282770000000     0.505080000000     0.989970000000     0.0317546  
C352     C      0.227400000000     0.005160000000     0.989980000000     0.031015   
C353     C      0.227460000000     0.863690000000     0.131810000000     0.031673   
C354     C      0.282830000000     0.863750000000     0.131920000000     0.031736   
C355     C      0.282740000000     0.896540000000     0.131810000000     0.0317901  
C356     C      0.227370000000     0.896470000000     0.131930000000     0.0318331  
C357     C      0.227460000000     0.613690000000     0.131790000000     0.0313534  
C358     C      0.282830000000     0.613750000000     0.131890000000     0.0314239  
C359     C      0.282740000000     0.646540000000     0.131780000000     0.031398   
C360     C      0.227370000000     0.646470000000     0.131900000000     0.0314183  
C361     C      0.025370000000     0.736060000000     0.240000000000     0.0322708  
C362     C      0.484950000000     0.774080000000     0.240010000000     0.0334706  
C363     C      0.486150000000     0.775270000000     0.272840000000     0.0335638  
C364     C      0.024170000000     0.734850000000     0.272830000000     0.0326012  
C365     C      0.477480000000     0.754240000000     0.022870000000     0.0317184  
C366     C      0.032820000000     0.755980000000     0.022860000000     0.030755   
C367     C      0.032820000000     0.755980000000     0.989990000000     0.0306977  
C368     C      0.477480000000     0.754260000000     0.990000000000     0.0317625  
C369     C      0.484940000000     0.524130000000     0.240000000000     0.0334543  
C370     C      0.025350000000     0.986100000000     0.240010000000     0.0377875  
C371     C      0.024140000000     0.984910000000     0.272850000000     0.0374567  
C372     C      0.486130000000     0.525330000000     0.272830000000     0.033518   
C373     C      0.032840000000     0.005220000000     0.022860000000     0.03006    
C374     C      0.477480000000     0.504960000000     0.022860000000     0.0317092  
C375     C      0.477480000000     0.505040000000     0.989990000000     0.0316824  
C376     C      0.032840000000     0.005150000000     0.989990000000     0.0300717  
C377     C      0.477400000000     0.896450000000     0.131910000000     0.0318412  
C378     C      0.032770000000     0.896510000000     0.131850000000     0.0306827  
C379     C      0.032860000000     0.863730000000     0.131960000000     0.0306479  
C380     C      0.477490000000     0.863660000000     0.131790000000     0.0317051  
C381     C      0.032920000000     0.613730000000     0.131880000000     0.0303125  
C382     C      0.477550000000     0.613670000000     0.131820000000     0.031369   
C383     C      0.477460000000     0.646450000000     0.131930000000     0.0314108  
C384     C      0.032830000000     0.646510000000     0.131770000000     0.0303129  
C385     C      0.505150000000     0.505100000000     0.191770000000     0.434728   
C386     C      0.505160000000     0.005080000000     0.071580000000     0.432089   
C387     C      0.005050000000     0.445070000000     0.131800000000     0.424818   
C388     C      0.005270000000     0.065110000000     0.131780000000     0.424189   
C389     C      0.505160000000     0.255080000000     0.191770000000     0.43473    
C390     C      0.505160000000     0.255100000000     0.071580000000     0.433092   
C391     C      0.505090000000     0.195070000000     0.131780000000     0.432929   
C392     C      0.505230000000     0.315110000000     0.131800000000     0.432861   
C393     C      0.755190000000     0.065140000000     0.131770000000     0.432182   
C394     C      0.755010000000     0.445090000000     0.131790000000     0.432466   
C395     C      0.755100000000     0.005120000000     0.191760000000     0.43375    
C396     C      0.755090000000     0.005110000000     0.071570000000     0.432088   
C397     C      0.755010000000     0.195090000000     0.131770000000     0.432757   
C398     C      0.755190000000     0.315130000000     0.131790000000     0.432858   
C399     C      0.755090000000     0.255130000000     0.071570000000     0.433041   
C400     C      0.755110000000     0.255090000000     0.191760000000     0.43483    
C401     C      0.506270000000     0.445100000000     0.881080000000     0.4325     
C402     C      0.504010000000     0.065130000000     0.881100000000     0.432099   
C403     C      0.505150000000     0.005110000000     0.941270000000     0.431954   
C404     C      0.505120000000     0.005130000000     0.821080000000     0.433616   
C405     C      0.506270000000     0.315130000000     0.881090000000     0.43272    
C406     C      0.504010000000     0.195100000000     0.881100000000     0.432653   
C407     C      0.505150000000     0.255120000000     0.941280000000     0.433061   
C408     C      0.505140000000     0.255110000000     0.821090000000     0.434814   
C409     C      0.755070000000     0.505150000000     0.821060000000     0.434735   
C410     C      0.755080000000     0.505130000000     0.941260000000     0.432975   
C411     C      0.754980000000     0.065170000000     0.881050000000     0.432132   
C412     C      0.755170000000     0.445120000000     0.881040000000     0.432722   
C413     C      0.755080000000     0.255130000000     0.821070000000     0.434907   
C414     C      0.755080000000     0.255150000000     0.941260000000     0.433115   
C415     C      0.755160000000     0.195120000000     0.881060000000     0.432682   
C416     C      0.754990000000     0.315170000000     0.881040000000     0.432667   
C417     C      0.945080000000     0.505050000000     0.381040000000     0.431883   
C418     C      0.565130000000     0.505230000000     0.381060000000     0.432689   
C419     C      0.505090000000     0.505140000000     0.441260000000     0.43309    
C420     C      0.505120000000     0.505120000000     0.321070000000     0.434853   
C421     C      0.505160000000     0.255060000000     0.321070000000     0.435043   
C422     C      0.505150000000     0.255050000000     0.441260000000     0.433134   
C423     C      0.565180000000     0.255120000000     0.381050000000     0.432831   
C424     C      0.945130000000     0.254990000000     0.381040000000     0.431791   
C425     C      0.755110000000     0.005140000000     0.441260000000     0.425231   
C426     C      0.755100000000     0.005130000000     0.321060000000     0.426657   
C427     C      0.815130000000     0.005230000000     0.381040000000     0.424636   
C428     C      0.695080000000     0.005040000000     0.381050000000     0.424667   
C429     C      0.815180000000     0.255160000000     0.381040000000     0.432763   
C430     C      0.695130000000     0.254940000000     0.381050000000     0.43263    
C431     C      0.755150000000     0.255060000000     0.321060000000     0.434849   
C432     C      0.755160000000     0.255050000000     0.441250000000     0.433426   
C433     C      0.505070000000     0.005150000000     0.571570000000     0.424974   
C434     C      0.505080000000     0.005150000000     0.691770000000     0.426437   
C435     C      0.945050000000     0.005240000000     0.631790000000     0.423896   
C436     C      0.565090000000     0.005070000000     0.631780000000     0.424815   
C437     C      0.565140000000     0.256200000000     0.631740000000     0.432704   
C438     C      0.945110000000     0.253940000000     0.631750000000     0.432009   
C439     C      0.505130000000     0.255080000000     0.691750000000     0.434799   
C440     C      0.005130000000     0.255060000000     0.571560000000     0.432152   
C441     C      0.755070000000     0.505160000000     0.691760000000     0.434728   
C442     C      0.755080000000     0.505150000000     0.571570000000     0.43315    
C443     C      0.695050000000     0.505250000000     0.631770000000     0.432728   
C444     C      0.815100000000     0.505060000000     0.631790000000     0.432631   
C445     C      0.755110000000     0.255090000000     0.691750000000     0.434606   
C446     C      0.755140000000     0.255060000000     0.571560000000     0.432978   
C447     C      0.695110000000     0.256200000000     0.631740000000     0.432594   
C448     C      0.815140000000     0.253940000000     0.631750000000     0.43275    
C449     C      0.896480000000     0.281230000000     0.630370000000     0.031639   
C450     C      0.896560000000     0.225930000000     0.633150000000     0.0319057  
C451     C      0.863690000000     0.225930000000     0.633150000000     0.0318043  
C452     C      0.863770000000     0.281220000000     0.630370000000     0.03168    
C453     C      0.613770000000     0.228920000000     0.630370000000     0.0313724  
C454     C      0.613690000000     0.284210000000     0.633130000000     0.0314583  
C455     C      0.646550000000     0.284210000000     0.633120000000     0.0315524  
C456     C      0.646480000000     0.228920000000     0.630370000000     0.0312176  
C457     C      0.896430000000     0.032880000000     0.631910000000     0.0307895  
C458     C      0.896500000000     0.477510000000     0.631810000000     0.0317478  
C459     C      0.863710000000     0.477420000000     0.631920000000     0.0317061  
C460     C      0.863650000000     0.032790000000     0.631800000000     0.0306768  
C461     C      0.613650000000     0.032800000000     0.631790000000     0.030271   
C462     C      0.613710000000     0.477430000000     0.631900000000     0.0314612  
C463     C      0.646500000000     0.477520000000     0.631780000000     0.0314159  
C464     C      0.646430000000     0.032890000000     0.631910000000     0.0302916  
C465     C      0.755030000000     0.227370000000     0.489970000000     0.0318175  
C466     C      0.755290000000     0.282730000000     0.489970000000     0.0318909  
C467     C      0.755200000000     0.282740000000     0.522840000000     0.031673   
C468     C      0.755090000000     0.227370000000     0.522840000000     0.031795   
C469     C      0.755050000000     0.477460000000     0.489980000000     0.0317801  
C470     C      0.755140000000     0.032830000000     0.489970000000     0.0306656  
C471     C      0.755050000000     0.032830000000     0.522850000000     0.0307675  
C472     C      0.755130000000     0.477470000000     0.522850000000     0.0318238  
C473     C      0.004270000000     0.227380000000     0.489980000000     0.0310632  
C474     C      0.506010000000     0.282720000000     0.489970000000     0.0317486  
C475     C      0.505990000000     0.282730000000     0.522840000000     0.0316458  
C476     C      0.004270000000     0.227390000000     0.522850000000     0.0311626  
C477     C      0.896580000000     0.282720000000     0.381050000000     0.0317617  
C478     C      0.896510000000     0.227350000000     0.380880000000     0.0318363  
C479     C      0.863730000000     0.227440000000     0.380990000000     0.0316836  
C480     C      0.863800000000     0.282810000000     0.380930000000     0.0317507  
C481     C      0.646580000000     0.282660000000     0.381010000000     0.0314809  
C482     C      0.646510000000     0.227300000000     0.380950000000     0.0314162  
C483     C      0.613730000000     0.227380000000     0.381070000000     0.0313732  
C484     C      0.613800000000     0.282750000000     0.380900000000     0.0313785  
C485     C      0.505030000000     0.477470000000     0.489980000000     0.031691   
C486     C      0.005120000000     0.032830000000     0.489980000000     0.0301446  
C487     C      0.005030000000     0.032840000000     0.522850000000     0.0299477  
C488     C      0.505110000000     0.477470000000     0.522850000000     0.0317283  
C489     C      0.896530000000     0.032770000000     0.381020000000     0.030791   
C490     C      0.896460000000     0.477410000000     0.380910000000     0.0318022  
C491     C      0.863680000000     0.477500000000     0.381030000000     0.0317236  
C492     C      0.863750000000     0.032860000000     0.380910000000     0.0306584  
C493     C      0.613680000000     0.477500000000     0.381050000000     0.0314173  
C494     C      0.613750000000     0.032860000000     0.380930000000     0.0302627  
C495     C      0.646530000000     0.032770000000     0.381040000000     0.0304291  
C496     C      0.646460000000     0.477410000000     0.380930000000     0.0313844  
C497     C      0.735880000000     0.235090000000     0.739990000000     0.0334156  
C498     C      0.774320000000     0.275120000000     0.739990000000     0.0335517  
C499     C      0.775490000000     0.273930000000     0.772820000000     0.0335373  
C500     C      0.734700000000     0.236310000000     0.772830000000     0.0336125  
C501     C      0.775280000000     0.024170000000     0.772830000000     0.0326685  
C502     C      0.734860000000     0.486150000000     0.772830000000     0.0335055  
C503     C      0.736050000000     0.484950000000     0.740000000000     0.0334518  
C504     C      0.774070000000     0.025370000000     0.740000000000     0.0322298  
C505     C      0.782810000000     0.396500000000     0.880900000000     0.0313739  
C506     C      0.727440000000     0.396570000000     0.881030000000     0.0314756  
C507     C      0.727350000000     0.363790000000     0.880920000000     0.0313547  
C508     C      0.782720000000     0.363720000000     0.881010000000     0.031497   
C509     C      0.782710000000     0.113720000000     0.881050000000     0.0314164  
C510     C      0.727340000000     0.113790000000     0.880930000000     0.0313362  
C511     C      0.727430000000     0.146570000000     0.881040000000     0.0313553  
C512     C      0.782800000000     0.146500000000     0.880940000000     0.0314871  
C513     C      0.525330000000     0.236080000000     0.772840000000     0.0334711  
C514     C      0.984930000000     0.274120000000     0.772830000000     0.0381858  
C515     C      0.986110000000     0.275290000000     0.740000000000     0.0390209  
C516     C      0.524150000000     0.234890000000     0.740010000000     0.0334853  
C517     C      0.985090000000     0.485920000000     0.772850000000     0.0381761  
C518     C      0.525120000000     0.024360000000     0.772840000000     0.0326295  
C519     C      0.523910000000     0.025540000000     0.740010000000     0.0322191  
C520     C      0.986280000000     0.484750000000     0.740010000000     0.0390771  
C521     C      0.534280000000     0.396550000000     0.879680000000     0.0314824  
C522     C      0.478990000000     0.396470000000     0.882460000000     0.0313763  
C523     C      0.478980000000     0.363770000000     0.882460000000     0.0312347  
C524     C      0.534280000000     0.363680000000     0.879680000000     0.0315115  
C525     C      0.531290000000     0.113760000000     0.882470000000     0.0312653  
C526     C      0.976000000000     0.113690000000     0.879710000000     0.036302   
C527     C      0.976000000000     0.146550000000     0.879710000000     0.0363637  
C528     C      0.531300000000     0.146470000000     0.882480000000     0.0312535  
C529     C      0.734910000000     0.274090000000     0.240010000000     0.0334106  
C530     C      0.775330000000     0.236070000000     0.239980000000     0.0336027  
C531     C      0.774140000000     0.234860000000     0.272820000000     0.0334731  
C532     C      0.736120000000     0.275280000000     0.272840000000     0.0336036  
C533     C      0.727400000000     0.255090000000     0.022850000000     0.0317199  
C534     C      0.782770000000     0.255190000000     0.022850000000     0.0316102  
C535     C      0.782760000000     0.255110000000     0.989980000000     0.0318097  
C536     C      0.727400000000     0.255190000000     0.989980000000     0.0317153  
C537     C      0.734890000000     0.024130000000     0.239990000000     0.0326744  
C538     C      0.775310000000     0.486110000000     0.240000000000     0.0334956  
C539     C      0.774110000000     0.484920000000     0.272830000000     0.0335606  
C540     C      0.736090000000     0.025340000000     0.272830000000     0.0322113  
C541     C      0.727410000000     0.505070000000     0.022850000000     0.0317599  
C542     C      0.782770000000     0.005160000000     0.022850000000     0.0311492  
C543     C      0.782770000000     0.005080000000     0.989970000000     0.0311845  
C544     C      0.727400000000     0.505160000000     0.989980000000     0.031567   
C545     C      0.727460000000     0.363690000000     0.131810000000     0.0313792  
C546     C      0.782830000000     0.363750000000     0.131920000000     0.0314718  
C547     C      0.782740000000     0.396540000000     0.131810000000     0.0314133  
C548     C      0.727370000000     0.396470000000     0.131930000000     0.0314167  
C549     C      0.727460000000     0.113690000000     0.131790000000     0.031337   
C550     C      0.782830000000     0.113750000000     0.131890000000     0.0314201  
C551     C      0.782740000000     0.146540000000     0.131780000000     0.0314088  
C552     C      0.727370000000     0.146470000000     0.131900000000     0.031413   
C553     C      0.525370000000     0.236060000000     0.240000000000     0.0335088  
C554     C      0.984950000000     0.274080000000     0.240010000000     0.0381935  
C555     C      0.986150000000     0.275270000000     0.272840000000     0.0391284  
C556     C      0.524170000000     0.234850000000     0.272830000000     0.03346    
C557     C      0.977480000000     0.254240000000     0.022870000000     0.0364682  
C558     C      0.532820000000     0.255980000000     0.022860000000     0.0317617  
C559     C      0.532820000000     0.255980000000     0.989990000000     0.03166    
C560     C      0.977480000000     0.254260000000     0.990000000000     0.0365165  
C561     C      0.984940000000     0.024130000000     0.240000000000     0.0373065  
C562     C      0.525350000000     0.486100000000     0.240010000000     0.0335028  
C563     C      0.524140000000     0.484900000000     0.272850000000     0.0334901  
C564     C      0.986130000000     0.025330000000     0.272830000000     0.0378574  
C565     C      0.532840000000     0.505220000000     0.022860000000     0.0316866  
C566     C      0.977480000000     0.004960000000     0.022860000000     0.0359511  
C567     C      0.977480000000     0.005040000000     0.989990000000     0.0359272  
C568     C      0.532840000000     0.505150000000     0.989990000000     0.0316996  
C569     C      0.977400000000     0.396450000000     0.131910000000     0.0363087  
C570     C      0.532770000000     0.396510000000     0.131850000000     0.0313919  
C571     C      0.532860000000     0.363730000000     0.131960000000     0.031423   
C572     C      0.977490000000     0.363660000000     0.131790000000     0.036229   
C573     C      0.532920000000     0.113730000000     0.131880000000     0.0313521  
C574     C      0.977550000000     0.113670000000     0.131820000000     0.0361493  
C575     C      0.977460000000     0.146450000000     0.131930000000     0.0362852  
C576     C      0.532830000000     0.146520000000     0.131770000000     0.0314057  
C577     C      0.505150000000     0.005100000000     0.191770000000     0.433971   
C578     C      0.505160000000     0.505080000000     0.071580000000     0.433036   
C579     C      0.005050000000     0.945070000000     0.131800000000     0.424094   
C580     C      0.005270000000     0.565110000000     0.131780000000     0.424625   
C581     C      0.505160000000     0.755080000000     0.191770000000     0.434731   
C582     C      0.505160000000     0.755100000000     0.071580000000     0.433127   
C583     C      0.505090000000     0.695070000000     0.131780000000     0.432906   
C584     C      0.505230000000     0.815110000000     0.131800000000     0.432957   
C585     C      0.755190000000     0.565130000000     0.131770000000     0.432727   
C586     C      0.755010000000     0.945090000000     0.131790000000     0.431719   
C587     C      0.755100000000     0.505120000000     0.191760000000     0.434777   
C588     C      0.755090000000     0.505110000000     0.071570000000     0.433045   
C589     C      0.755010000000     0.695090000000     0.131770000000     0.432743   
C590     C      0.755190000000     0.815130000000     0.131790000000     0.432889   
C591     C      0.755090000000     0.755130000000     0.071570000000     0.433084   
C592     C      0.755110000000     0.755090000000     0.191760000000     0.434839   
C593     C      0.506270000000     0.945100000000     0.881080000000     0.431752   
C594     C      0.504010000000     0.565130000000     0.881100000000     0.432551   
C595     C      0.505150000000     0.505110000000     0.941270000000     0.432913   
C596     C      0.505120000000     0.505130000000     0.821080000000     0.43465    
C597     C      0.506270000000     0.815130000000     0.881090000000     0.432816   
C598     C      0.504010000000     0.695100000000     0.881100000000     0.432631   
C599     C      0.505150000000     0.755120000000     0.941280000000     0.433096   
C600     C      0.505140000000     0.755110000000     0.821090000000     0.434816   
C601     C      0.755070000000     0.005150000000     0.821060000000     0.433695   
C602     C      0.755080000000     0.005130000000     0.941260000000     0.432015   
C603     C      0.754980000000     0.565170000000     0.881050000000     0.432585   
C604     C      0.755170000000     0.945120000000     0.881040000000     0.431972   
C605     C      0.755080000000     0.755130000000     0.821070000000     0.434901   
C606     C      0.755080000000     0.755150000000     0.941260000000     0.433142   
C607     C      0.755170000000     0.695120000000     0.881060000000     0.432718   
C608     C      0.754990000000     0.815170000000     0.881040000000     0.432756   
C609     C      0.945080000000     0.005040000000     0.381040000000     0.423883   
C610     C      0.565130000000     0.005230000000     0.381060000000     0.424575   
C611     C      0.505090000000     0.005140000000     0.441260000000     0.425019   
C612     C      0.505120000000     0.005130000000     0.321070000000     0.426714   
C613     C      0.505160000000     0.755060000000     0.321070000000     0.435026   
C614     C      0.505150000000     0.755050000000     0.441260000000     0.433111   
C615     C      0.565180000000     0.755120000000     0.381050000000     0.432817   
C616     C      0.945130000000     0.754990000000     0.381040000000     0.431771   
C617     C      0.755110000000     0.505140000000     0.441260000000     0.433034   
C618     C      0.755100000000     0.505130000000     0.321060000000     0.434783   
C619     C      0.815130000000     0.505230000000     0.381040000000     0.432734   
C620     C      0.695080000000     0.505050000000     0.381050000000     0.432686   
C621     C      0.815180000000     0.755160000000     0.381040000000     0.432744   
C622     C      0.695130000000     0.754940000000     0.381050000000     0.432608   
C623     C      0.755150000000     0.755060000000     0.321060000000     0.434832   
C624     C      0.755160000000     0.755050000000     0.441250000000     0.433404   
C625     C      0.505070000000     0.505160000000     0.571570000000     0.433052   
C626     C      0.505080000000     0.505150000000     0.691770000000     0.434567   
C627     C      0.945050000000     0.505240000000     0.631790000000     0.431981   
C628     C      0.565090000000     0.505070000000     0.631780000000     0.432847   
C629     C      0.565140000000     0.756200000000     0.631740000000     0.432685   
C630     C      0.945110000000     0.753940000000     0.631750000000     0.431988   
C631     C      0.505130000000     0.755080000000     0.691750000000     0.434784   
C632     C      0.005130000000     0.755060000000     0.571560000000     0.432129   
C633     C      0.755060000000     0.005160000000     0.691760000000     0.426606   
C634     C      0.755080000000     0.005150000000     0.571570000000     0.425086   
C635     C      0.695050000000     0.005250000000     0.631770000000     0.424617   
C636     C      0.815100000000     0.005060000000     0.631790000000     0.424619   
C637     C      0.755110000000     0.755090000000     0.691750000000     0.434589   
C638     C      0.755140000000     0.755060000000     0.571560000000     0.432955   
C639     C      0.695110000000     0.756200000000     0.631740000000     0.432576   
C640     C      0.815140000000     0.753940000000     0.631750000000     0.432729   
C641     C      0.896480000000     0.781230000000     0.630370000000     0.0316453  
C642     C      0.896560000000     0.725930000000     0.633150000000     0.0318934  
C643     C      0.863690000000     0.725930000000     0.633150000000     0.0317924  
C644     C      0.863770000000     0.781220000000     0.630370000000     0.0316857  
C645     C      0.613770000000     0.728920000000     0.630370000000     0.0313618  
C646     C      0.613690000000     0.784210000000     0.633130000000     0.031469   
C647     C      0.646550000000     0.784210000000     0.633120000000     0.0315638  
C648     C      0.646480000000     0.728920000000     0.630370000000     0.0312068  
C649     C      0.896430000000     0.532880000000     0.631910000000     0.0318655  
C650     C      0.896500000000     0.977510000000     0.631810000000     0.0365517  
C651     C      0.863710000000     0.977420000000     0.631920000000     0.0365693  
C652     C      0.863650000000     0.532790000000     0.631800000000     0.0317243  
C653     C      0.613650000000     0.532800000000     0.631790000000     0.0313236  
C654     C      0.613710000000     0.977430000000     0.631900000000     0.0363297  
C655     C      0.646500000000     0.977520000000     0.631780000000     0.0362312  
C656     C      0.646430000000     0.532890000000     0.631910000000     0.0313704  
C657     C      0.755030000000     0.727370000000     0.489970000000     0.0318024  
C658     C      0.755290000000     0.782730000000     0.489970000000     0.031892   
C659     C      0.755200000000     0.782740000000     0.522840000000     0.031674   
C660     C      0.755090000000     0.727370000000     0.522840000000     0.0317799  
C661     C      0.755050000000     0.977460000000     0.489980000000     0.0365947  
C662     C      0.755140000000     0.532830000000     0.489970000000     0.0317528  
C663     C      0.755050000000     0.532830000000     0.522850000000     0.0318243  
C664     C      0.755130000000     0.977470000000     0.522850000000     0.0366638  
C665     C      0.004270000000     0.727380000000     0.489980000000     0.0310474  
C666     C      0.506010000000     0.782720000000     0.489970000000     0.0317497  
C667     C      0.505990000000     0.782730000000     0.522840000000     0.031647   
C668     C      0.004270000000     0.727390000000     0.522850000000     0.0311467  
C669     C      0.896580000000     0.782720000000     0.381050000000     0.031769   
C670     C      0.896510000000     0.727350000000     0.380880000000     0.0318246  
C671     C      0.863730000000     0.727440000000     0.380990000000     0.0316723  
C672     C      0.863800000000     0.782810000000     0.380930000000     0.0317598  
C673     C      0.646580000000     0.782660000000     0.381010000000     0.0314798  
C674     C      0.646510000000     0.727300000000     0.380950000000     0.0313451  
C675     C      0.613730000000     0.727390000000     0.381070000000     0.0314721  
C676     C      0.613800000000     0.782750000000     0.380900000000     0.031394   
C677     C      0.505030000000     0.977470000000     0.489980000000     0.0365433  
C678     C      0.005120000000     0.532830000000     0.489980000000     0.0311542  
C679     C      0.005030000000     0.532830000000     0.522850000000     0.0311064  
C680     C      0.505110000000     0.977470000000     0.522850000000     0.0365448  
C681     C      0.896530000000     0.532780000000     0.381020000000     0.0317167  
C682     C      0.896460000000     0.977410000000     0.380910000000     0.0366467  
C683     C      0.863680000000     0.977500000000     0.381030000000     0.0365275  
C684     C      0.863750000000     0.532860000000     0.380910000000     0.0318004  
C685     C      0.613680000000     0.977500000000     0.381050000000     0.0363112  
C686     C      0.613750000000     0.532860000000     0.380930000000     0.0314856  
C687     C      0.646530000000     0.532780000000     0.381040000000     0.0313237  
C688     C      0.646460000000     0.977410000000     0.380930000000     0.0362098  
C689     C      0.735880000000     0.735090000000     0.739990000000     0.0334184  
C690     C      0.774320000000     0.775120000000     0.739990000000     0.0335802  
C691     C      0.775490000000     0.773930000000     0.772820000000     0.0335605  
C692     C      0.734700000000     0.736310000000     0.772830000000     0.0336213  
C693     C      0.775270000000     0.524170000000     0.772830000000     0.0336453  
C694     C      0.734860000000     0.986150000000     0.772830000000     0.0390892  
C695     C      0.736050000000     0.984950000000     0.740000000000     0.0381841  
C696     C      0.774080000000     0.525370000000     0.740000000000     0.0333531  
C697     C      0.782810000000     0.896500000000     0.880900000000     0.0317647  
C698     C      0.727440000000     0.896570000000     0.881030000000     0.0318473  
C699     C      0.727350000000     0.863790000000     0.880920000000     0.0316399  
C700     C      0.782720000000     0.863720000000     0.881010000000     0.0317874  
C701     C      0.782710000000     0.613720000000     0.881050000000     0.0314415  
C702     C      0.727340000000     0.613790000000     0.880930000000     0.0313573  
C703     C      0.727430000000     0.646570000000     0.881040000000     0.0313685  
C704     C      0.782800000000     0.646500000000     0.880940000000     0.0314625  
C705     C      0.525330000000     0.736080000000     0.772840000000     0.0334821  
C706     C      0.984930000000     0.774120000000     0.772830000000     0.0382055  
C707     C      0.986110000000     0.775290000000     0.740000000000     0.0390457  
C708     C      0.524150000000     0.734890000000     0.740010000000     0.0334893  
C709     C      0.985090000000     0.985920000000     0.772850000000     0.0437378  
C710     C      0.525120000000     0.524360000000     0.772840000000     0.0334831  
C711     C      0.523910000000     0.525540000000     0.740010000000     0.0334766  
C712     C      0.986280000000     0.984750000000     0.740010000000     0.0437809  
C713     C      0.534280000000     0.896550000000     0.879680000000     0.0318741  
C714     C      0.478990000000     0.896470000000     0.882460000000     0.0317482  
C715     C      0.478980000000     0.863770000000     0.882460000000     0.0315213  
C716     C      0.534280000000     0.863680000000     0.879680000000     0.0318018  
C717     C      0.531290000000     0.613770000000     0.882480000000     0.0312455  
C718     C      0.976000000000     0.613690000000     0.879710000000     0.0363339  
C719     C      0.976000000000     0.646550000000     0.879710000000     0.0363585  
C720     C      0.531300000000     0.646470000000     0.882480000000     0.0312493  
C721     C      0.734910000000     0.774090000000     0.240010000000     0.0334343  
C722     C      0.775330000000     0.736070000000     0.239980000000     0.0336124  
C723     C      0.774140000000     0.734860000000     0.272820000000     0.0334744  
C724     C      0.736120000000     0.775280000000     0.272840000000     0.0336317  
C725     C      0.727400000000     0.755090000000     0.022850000000     0.0317893  
C726     C      0.782770000000     0.755190000000     0.022850000000     0.031681   
C727     C      0.782760000000     0.755110000000     0.989980000000     0.031878   
C728     C      0.727400000000     0.755190000000     0.989980000000     0.0317839  
C729     C      0.734890000000     0.524140000000     0.239990000000     0.0334425  
C730     C      0.775310000000     0.986110000000     0.240000000000     0.0391318  
C731     C      0.774120000000     0.984920000000     0.272830000000     0.0382079  
C732     C      0.736090000000     0.525340000000     0.272830000000     0.0335165  
C733     C      0.727410000000     0.005070000000     0.022850000000     0.0311902  
C734     C      0.782770000000     0.505160000000     0.022850000000     0.0317171  
C735     C      0.782770000000     0.505080000000     0.989970000000     0.0317545  
C736     C      0.727400000000     0.005160000000     0.989980000000     0.0309983  
C737     C      0.727460000000     0.863690000000     0.131810000000     0.0316681  
C738     C      0.782830000000     0.863750000000     0.131920000000     0.0317498  
C739     C      0.782740000000     0.896540000000     0.131810000000     0.0317869  
C740     C      0.727370000000     0.896470000000     0.131930000000     0.0318077  
C741     C      0.727460000000     0.613690000000     0.131790000000     0.031342   
C742     C      0.782830000000     0.613750000000     0.131890000000     0.0314335  
C743     C      0.782740000000     0.646540000000     0.131780000000     0.031406   
C744     C      0.727370000000     0.646470000000     0.131900000000     0.0314071  
C745     C      0.525370000000     0.736060000000     0.240000000000     0.0335178  
C746     C      0.984950000000     0.774080000000     0.240010000000     0.0382121  
C747     C      0.986150000000     0.775270000000     0.272840000000     0.0391511  
C748     C      0.524170000000     0.734850000000     0.272830000000     0.0334617  
C749     C      0.977480000000     0.754240000000     0.022870000000     0.0365315  
C750     C      0.532820000000     0.755980000000     0.022860000000     0.0318325  
C751     C      0.532820000000     0.755980000000     0.989990000000     0.0317308  
C752     C      0.977480000000     0.754260000000     0.990000000000     0.03658    
C753     C      0.984940000000     0.524130000000     0.240000000000     0.0381703  
C754     C      0.525350000000     0.986100000000     0.240010000000     0.0391521  
C755     C      0.524150000000     0.984900000000     0.272850000000     0.0381537  
C756     C      0.986130000000     0.525330000000     0.272830000000     0.0391311  
C757     C      0.532840000000     0.005220000000     0.022860000000     0.0311186  
C758     C      0.977480000000     0.504960000000     0.022860000000     0.0365308  
C759     C      0.977480000000     0.505040000000     0.989990000000     0.0365065  
C760     C      0.532840000000     0.005150000000     0.989990000000     0.03113    
C761     C      0.977400000000     0.896450000000     0.131910000000     0.036683   
C762     C      0.532770000000     0.896510000000     0.131850000000     0.0317639  
C763     C      0.532860000000     0.863730000000     0.131960000000     0.0317088  
C764     C      0.977490000000     0.863660000000     0.131790000000     0.0365094  
C765     C      0.532920000000     0.613730000000     0.131880000000     0.0313884  
C766     C      0.977550000000     0.613670000000     0.131820000000     0.0361769  
C767     C      0.977460000000     0.646450000000     0.131930000000     0.0362714  
C768     C      0.532830000000     0.646510000000     0.131770000000     0.0313628  
H1       H      0.408270000000     0.303760000000     0.629240000000     0.0389466  
H2       H      0.408540000000     0.203500000000     0.634280000000     0.0388509  
H3       H      0.351720000000     0.203500000000     0.634280000000     0.0388129  
H4       H      0.351980000000     0.303750000000     0.629240000000     0.0389693  
H5       H      0.101980000000     0.206380000000     0.629250000000     0.0388053  
H6       H      0.101710000000     0.306640000000     0.634250000000     0.0387348  
H7       H      0.158530000000     0.306650000000     0.634250000000     0.0387676  
H8       H      0.158280000000     0.206390000000     0.629240000000     0.0389243  
H9       H      0.408300000000     0.055400000000     0.631920000000     0.038936   
H10      H      0.408410000000     0.455020000000     0.631810000000     0.0388273  
H11      H      0.351850000000     0.454900000000     0.631940000000     0.038633   
H12      H      0.351730000000     0.055280000000     0.631790000000     0.0391352  
H13      H      0.101730000000     0.055290000000     0.631790000000     0.0387556  
H14      H      0.101850000000     0.454910000000     0.631900000000     0.0387346  
H15      H      0.158410000000     0.455030000000     0.631770000000     0.0390481  
H16      H      0.158290000000     0.055410000000     0.631920000000     0.0386332  
H17      H      0.254950000000     0.204860000000     0.478050000000     0.0388322  
H18      H      0.255370000000     0.305240000000     0.478050000000     0.0388584  
H19      H      0.255270000000     0.305240000000     0.534760000000     0.0389174  
H20      H      0.255020000000     0.204860000000     0.534770000000     0.0388417  
H21      H      0.255050000000     0.454950000000     0.478060000000     0.0388818  
H22      H      0.255150000000     0.055330000000     0.478050000000     0.0389085  
H23      H      0.255040000000     0.055340000000     0.534770000000     0.0388957  
H24      H      0.255140000000     0.454960000000     0.534780000000     0.0388758  
H25      H      0.503570000000     0.204890000000     0.478060000000     0.0388478  
H26      H      0.006720000000     0.305220000000     0.478050000000     0.0382152  
H27      H      0.006690000000     0.305220000000     0.534760000000     0.0382448  
H28      H      0.503570000000     0.204890000000     0.534770000000     0.0388189  
H29      H      0.408500000000     0.305210000000     0.381080000000     0.038986   
H30      H      0.408380000000     0.204830000000     0.380840000000     0.0387235  
H31      H      0.351820000000     0.204950000000     0.380970000000     0.0389536  
H32      H      0.351930000000     0.305330000000     0.380940000000     0.0387532  
H33      H      0.158490000000     0.305160000000     0.381000000000     0.038925   
H34      H      0.158380000000     0.204780000000     0.380960000000     0.0386711  
H35      H      0.101810000000     0.204890000000     0.381090000000     0.0388152  
H36      H      0.101930000000     0.305270000000     0.380870000000     0.03863    
H37      H      0.005030000000     0.454960000000     0.478060000000     0.0381952  
H38      H      0.505140000000     0.055340000000     0.478050000000     0.0388725  
H39      H      0.505020000000     0.055340000000     0.534770000000     0.0389147  
H40      H      0.005110000000     0.454960000000     0.534780000000     0.0381807  
H41      H      0.408450000000     0.055270000000     0.381020000000     0.0389889  
H42      H      0.408330000000     0.454890000000     0.380900000000     0.0387626  
H43      H      0.351760000000     0.455000000000     0.381040000000     0.0389785  
H44      H      0.351880000000     0.055380000000     0.380890000000     0.0387771  
H45      H      0.101760000000     0.455000000000     0.381060000000     0.0388501  
H46      H      0.101880000000     0.055380000000     0.380920000000     0.03865    
H47      H      0.158450000000     0.055270000000     0.381040000000     0.0389442  
H48      H      0.158330000000     0.454890000000     0.380920000000     0.0387331  
H49      H      0.220190000000     0.219180000000     0.727730000000     0.0357461  
H50      H      0.290020000000     0.291020000000     0.727720000000     0.0357952  
H51      H      0.291700000000     0.289310000000     0.785080000000     0.0357571  
H52      H      0.218480000000     0.220940000000     0.785090000000     0.03566    
H53      H      0.291340000000     0.039700000000     0.785100000000     0.0356439  
H54      H      0.218790000000     0.470620000000     0.785100000000     0.0358438  
H55      H      0.220520000000     0.468890000000     0.727730000000     0.0358653  
H56      H      0.289600000000     0.041430000000     0.727730000000     0.035768   
H57      H      0.305330000000     0.408370000000     0.880880000000     0.038651   
H58      H      0.204950000000     0.408480000000     0.881040000000     0.0390441  
H59      H      0.204840000000     0.351920000000     0.880910000000     0.0388823  
H60      H      0.305210000000     0.351800000000     0.881010000000     0.03884    
H61      H      0.305200000000     0.101800000000     0.881060000000     0.0389802  
H62      H      0.204820000000     0.101920000000     0.880910000000     0.0384802  
H63      H      0.204940000000     0.158490000000     0.881040000000     0.0387584  
H64      H      0.305320000000     0.158370000000     0.880930000000     0.0388935  
H65      H      0.041390000000     0.220540000000     0.785100000000     0.0356545  
H66      H      0.468880000000     0.289660000000     0.785090000000     0.0357934  
H67      H      0.470570000000     0.291340000000     0.727740000000     0.0357959  
H68      H      0.039690000000     0.218830000000     0.727750000000     0.0355358  
H69      H      0.469200000000     0.470230000000     0.785110000000     0.0357782  
H70      H      0.041030000000     0.040050000000     0.785100000000     0.0354382  
H71      H      0.039270000000     0.041760000000     0.727740000000     0.0353792  
H72      H      0.470910000000     0.468540000000     0.727750000000     0.0357413  
H73      H      0.556710000000     0.408530000000     0.878550000000     0.0388187  
H74      H      0.956460000000     0.408270000000     0.883590000000     0.0386253  
H75      H      0.956460000000     0.351970000000     0.883590000000     0.0385932  
H76      H      0.556710000000     0.351710000000     0.878550000000     0.0388609  
H77      H      0.053820000000     0.101970000000     0.883600000000     0.0388816  
H78      H      0.453560000000     0.101710000000     0.878590000000     0.0386755  
H79      H      0.453570000000     0.158530000000     0.878590000000     0.0388611  
H80      H      0.053830000000     0.158270000000     0.883600000000     0.0389626  
H81      H      0.218840000000     0.289610000000     0.227750000000     0.0358202  
H82      H      0.291390000000     0.220550000000     0.227710000000     0.0357811  
H83      H      0.289680000000     0.218800000000     0.285080000000     0.0358002  
H84      H      0.220590000000     0.291330000000     0.285110000000     0.035789   
H85      H      0.204890000000     0.255080000000     0.034780000000     0.038834   
H86      H      0.305270000000     0.255190000000     0.034770000000     0.0389178  
H87      H      0.305270000000     0.255100000000     0.978060000000     0.0388645  
H88      H      0.204890000000     0.255190000000     0.978060000000     0.0388371  
H89      H      0.218830000000     0.039660000000     0.227730000000     0.0355106  
H90      H      0.291380000000     0.470580000000     0.227730000000     0.0358228  
H91      H      0.289640000000     0.468850000000     0.285100000000     0.0358079  
H92      H      0.220560000000     0.041400000000     0.285090000000     0.0356622  
H93      H      0.204900000000     0.505060000000     0.034780000000     0.0388107  
H94      H      0.305280000000     0.005160000000     0.034770000000     0.0381973  
H95      H      0.305280000000     0.005070000000     0.978050000000     0.0381906  
H96      H      0.204900000000     0.505170000000     0.978060000000     0.0388521  
H97      H      0.204970000000     0.351770000000     0.131810000000     0.0389607  
H98      H      0.305350000000     0.351890000000     0.131930000000     0.0387631  
H99      H      0.305230000000     0.408450000000     0.131800000000     0.0389858  
H100     H      0.204850000000     0.408330000000     0.131940000000     0.0387113  
H101     H      0.204970000000     0.101770000000     0.131790000000     0.0388261  
H102     H      0.305350000000     0.101890000000     0.131900000000     0.0386089  
H103     H      0.305230000000     0.158450000000     0.131770000000     0.0389513  
H104     H      0.204850000000     0.158330000000     0.131910000000     0.0386766  
H105     H      0.041430000000     0.220530000000     0.227730000000     0.0356586  
H106     H      0.468890000000     0.289610000000     0.227740000000     0.0358559  
H107     H      0.470620000000     0.291330000000     0.285110000000     0.0358266  
H108     H      0.039700000000     0.218790000000     0.285100000000     0.0355577  
H109     H      0.454990000000     0.253540000000     0.034790000000     0.0389047  
H110     H      0.055320000000     0.256690000000     0.034780000000     0.0388983  
H111     H      0.055320000000     0.256680000000     0.978070000000     0.0389091  
H112     H      0.454990000000     0.253560000000     0.978080000000     0.038891   
H113     H      0.468880000000     0.039650000000     0.227720000000     0.0355675  
H114     H      0.041410000000     0.470570000000     0.227750000000     0.0356683  
H115     H      0.039670000000     0.468840000000     0.285120000000     0.0355541  
H116     H      0.470600000000     0.041400000000     0.285090000000     0.0356643  
H117     H      0.055350000000     0.505300000000     0.034780000000     0.038886   
H118     H      0.454970000000     0.004870000000     0.034790000000     0.038197   
H119     H      0.454970000000     0.004970000000     0.978070000000     0.0381896  
H120     H      0.055350000000     0.505220000000     0.978060000000     0.0388777  
H121     H      0.454880000000     0.408320000000     0.131900000000     0.0387509  
H122     H      0.055260000000     0.408430000000     0.131860000000     0.0390379  
H123     H      0.055380000000     0.351870000000     0.131990000000     0.0387704  
H124     H      0.455000000000     0.351750000000     0.131770000000     0.0389773  
H125     H      0.055430000000     0.101860000000     0.131870000000     0.0386426  
H126     H      0.455050000000     0.101750000000     0.131840000000     0.0388627  
H127     H      0.454940000000     0.158310000000     0.131970000000     0.0387236  
H128     H      0.055320000000     0.158430000000     0.131740000000     0.0389639  
H129     H      0.408270000000     0.803760000000     0.629240000000     0.0390246  
H130     H      0.408540000000     0.703500000000     0.634280000000     0.0388604  
H131     H      0.351720000000     0.703500000000     0.634280000000     0.0388204  
H132     H      0.351980000000     0.803750000000     0.629240000000     0.0390508  
H133     H      0.101980000000     0.706380000000     0.629240000000     0.0387801  
H134     H      0.101710000000     0.806640000000     0.634250000000     0.0388234  
H135     H      0.158530000000     0.806650000000     0.634250000000     0.0388554  
H136     H      0.158280000000     0.706390000000     0.629240000000     0.0389468  
H137     H      0.408300000000     0.555400000000     0.631920000000     0.0388935  
H138     H      0.408410000000     0.955020000000     0.631810000000     0.0385012  
H139     H      0.351850000000     0.954900000000     0.631940000000     0.0383417  
H140     H      0.351730000000     0.555280000000     0.631790000000     0.0390788  
H141     H      0.101730000000     0.555290000000     0.631790000000     0.0387001  
H142     H      0.101850000000     0.954910000000     0.631900000000     0.0384434  
H143     H      0.158410000000     0.955030000000     0.631770000000     0.0387219  
H144     H      0.158300000000     0.555410000000     0.631920000000     0.0385995  
H145     H      0.254950000000     0.704860000000     0.478050000000     0.0388384  
H146     H      0.255370000000     0.805240000000     0.478050000000     0.0389289  
H147     H      0.255270000000     0.805240000000     0.534760000000     0.0389882  
H148     H      0.255020000000     0.704860000000     0.534770000000     0.0388477  
H149     H      0.255050000000     0.954960000000     0.478060000000     0.0385598  
H150     H      0.255150000000     0.555340000000     0.478050000000     0.0388524  
H151     H      0.255040000000     0.555340000000     0.534770000000     0.0388478  
H152     H      0.255140000000     0.954960000000     0.534780000000     0.038552   
H153     H      0.503570000000     0.704890000000     0.478060000000     0.0388541  
H154     H      0.006720000000     0.805220000000     0.478050000000     0.0382862  
H155     H      0.006690000000     0.805220000000     0.534760000000     0.0383159  
H156     H      0.503570000000     0.704890000000     0.534770000000     0.0388252  
H157     H      0.408500000000     0.805210000000     0.381080000000     0.039071   
H158     H      0.408380000000     0.704830000000     0.380840000000     0.0387307  
H159     H      0.351820000000     0.704950000000     0.380970000000     0.0389627  
H160     H      0.351930000000     0.805330000000     0.380940000000     0.0388352  
H161     H      0.158490000000     0.805160000000     0.381000000000     0.0390118  
H162     H      0.158380000000     0.704780000000     0.380960000000     0.0386924  
H163     H      0.101810000000     0.704890000000     0.381090000000     0.0387929  
H164     H      0.101930000000     0.805270000000     0.380870000000     0.0387106  
H165     H      0.005030000000     0.954960000000     0.478060000000     0.0378709  
H166     H      0.505140000000     0.555340000000     0.478050000000     0.0388359  
H167     H      0.505030000000     0.555340000000     0.534770000000     0.0388351  
H168     H      0.005110000000     0.954960000000     0.534780000000     0.0378643  
H169     H      0.408450000000     0.555270000000     0.381020000000     0.038966   
H170     H      0.408330000000     0.954890000000     0.380900000000     0.0384721  
H171     H      0.351760000000     0.955000000000     0.381040000000     0.038653   
H172     H      0.351880000000     0.555380000000     0.380890000000     0.0387198  
H173     H      0.101760000000     0.955000000000     0.381060000000     0.0385067  
H174     H      0.101880000000     0.555380000000     0.380920000000     0.0385727  
H175     H      0.158450000000     0.555270000000     0.381040000000     0.038929   
H176     H      0.158330000000     0.954890000000     0.380920000000     0.0384507  
H177     H      0.220190000000     0.719180000000     0.727730000000     0.0357584  
H178     H      0.290020000000     0.791020000000     0.727720000000     0.0358823  
H179     H      0.291700000000     0.789310000000     0.785080000000     0.0358604  
H180     H      0.218480000000     0.720940000000     0.785090000000     0.0356749  
H181     H      0.291340000000     0.539700000000     0.785100000000     0.0358481  
H182     H      0.218790000000     0.970620000000     0.785100000000     0.0363794  
H183     H      0.220520000000     0.968890000000     0.727730000000     0.0360785  
H184     H      0.289600000000     0.541430000000     0.727730000000     0.0359194  
H185     H      0.305330000000     0.908370000000     0.880880000000     0.0395064  
H186     H      0.204950000000     0.908480000000     0.881040000000     0.0398641  
H187     H      0.204840000000     0.851920000000     0.880910000000     0.0391512  
H188     H      0.305210000000     0.851800000000     0.881010000000     0.0391146  
H189     H      0.305200000000     0.601800000000     0.881060000000     0.039081   
H190     H      0.204820000000     0.601920000000     0.880910000000     0.0386003  
H191     H      0.204940000000     0.658490000000     0.881040000000     0.0387838  
H192     H      0.305320000000     0.658370000000     0.880930000000     0.0389075  
H193     H      0.041390000000     0.720540000000     0.785100000000     0.0356659  
H194     H      0.468880000000     0.789660000000     0.785090000000     0.0358907  
H195     H      0.470570000000     0.791340000000     0.727740000000     0.0358758  
H196     H      0.039690000000     0.718830000000     0.727750000000     0.035544   
H197     H      0.469200000000     0.970230000000     0.785110000000     0.0363077  
H198     H      0.041030000000     0.540050000000     0.785100000000     0.035672   
H199     H      0.039270000000     0.541760000000     0.727740000000     0.0354936  
H200     H      0.470910000000     0.968540000000     0.727750000000     0.0359471  
H201     H      0.556710000000     0.908530000000     0.878550000000     0.0396654  
H202     H      0.956460000000     0.908270000000     0.883590000000     0.0394557  
H203     H      0.956460000000     0.851970000000     0.883590000000     0.0388673  
H204     H      0.556710000000     0.851710000000     0.878550000000     0.0391312  
H205     H      0.053820000000     0.601970000000     0.883600000000     0.0389939  
H206     H      0.453560000000     0.601710000000     0.878590000000     0.0388019  
H207     H      0.453570000000     0.658530000000     0.878590000000     0.0388805  
H208     H      0.053830000000     0.658260000000     0.883600000000     0.0389668  
H209     H      0.218840000000     0.789610000000     0.227750000000     0.0359243  
H210     H      0.291390000000     0.720550000000     0.227710000000     0.0357947  
H211     H      0.289680000000     0.718800000000     0.285080000000     0.0358122  
H212     H      0.220590000000     0.791330000000     0.285110000000     0.0358772  
H213     H      0.204890000000     0.755080000000     0.034780000000     0.0389102  
H214     H      0.305270000000     0.755190000000     0.034770000000     0.0389936  
H215     H      0.305270000000     0.755110000000     0.978060000000     0.0389411  
H216     H      0.204890000000     0.755190000000     0.978060000000     0.0389135  
H217     H      0.218830000000     0.539660000000     0.227730000000     0.0357756  
H218     H      0.291380000000     0.970580000000     0.227730000000     0.0363488  
H219     H      0.289640000000     0.968850000000     0.285100000000     0.0360304  
H220     H      0.220560000000     0.541400000000     0.285090000000     0.0357543  
H221     H      0.204900000000     0.005060000000     0.034780000000     0.0381525  
H222     H      0.305280000000     0.505160000000     0.034770000000     0.0388644  
H223     H      0.305280000000     0.505080000000     0.978050000000     0.038848   
H224     H      0.204900000000     0.005170000000     0.978060000000     0.0381856  
H225     H      0.204970000000     0.851770000000     0.131810000000     0.0392346  
H226     H      0.305350000000     0.851890000000     0.131930000000     0.0390262  
H227     H      0.305230000000     0.908450000000     0.131800000000     0.0398069  
H228     H      0.204850000000     0.908330000000     0.131940000000     0.0395638  
H229     H      0.204970000000     0.601770000000     0.131790000000     0.0389365  
H230     H      0.305350000000     0.601890000000     0.131900000000     0.038737   
H231     H      0.305230000000     0.658450000000     0.131770000000     0.0389689  
H232     H      0.204850000000     0.658330000000     0.131910000000     0.0386906  
H233     H      0.041430000000     0.720530000000     0.227730000000     0.0356723  
H234     H      0.468890000000     0.789610000000     0.227740000000     0.0359599  
H235     H      0.470620000000     0.791330000000     0.285110000000     0.0359149  
H236     H      0.039700000000     0.718790000000     0.285100000000     0.0355687  
H237     H      0.454990000000     0.753540000000     0.034790000000     0.0389761  
H238     H      0.055320000000     0.756690000000     0.034780000000     0.0389796  
H239     H      0.055320000000     0.756680000000     0.978070000000     0.0389906  
H240     H      0.454990000000     0.753560000000     0.978080000000     0.0389623  
H241     H      0.468880000000     0.539660000000     0.227720000000     0.0358068  
H242     H      0.041410000000     0.970570000000     0.227750000000     0.0362112  
H243     H      0.039670000000     0.968840000000     0.285120000000     0.0357472  
H244     H      0.470600000000     0.541400000000     0.285090000000     0.0357825  
H245     H      0.055350000000     0.005300000000     0.034780000000     0.038223   
H246     H      0.454970000000     0.504870000000     0.034790000000     0.0388599  
H247     H      0.454970000000     0.504970000000     0.978070000000     0.0388573  
H248     H      0.055350000000     0.005220000000     0.978060000000     0.0382198  
H249     H      0.454880000000     0.908320000000     0.131900000000     0.0396028  
H250     H      0.055260000000     0.908430000000     0.131860000000     0.0398583  
H251     H      0.055380000000     0.851870000000     0.131990000000     0.0390386  
H252     H      0.455000000000     0.851750000000     0.131770000000     0.0392507  
H253     H      0.055430000000     0.601860000000     0.131870000000     0.0387599  
H254     H      0.455050000000     0.601750000000     0.131840000000     0.0389711  
H255     H      0.454940000000     0.658310000000     0.131970000000     0.0387404  
H256     H      0.055320000000     0.658430000000     0.131740000000     0.0389987  
H257     H      0.908270000000     0.303760000000     0.629240000000     0.039763   
H258     H      0.908540000000     0.203500000000     0.634280000000     0.0397271  
H259     H      0.851720000000     0.203500000000     0.634280000000     0.039097   
H260     H      0.851970000000     0.303750000000     0.629240000000     0.0392476  
H261     H      0.601980000000     0.206380000000     0.629240000000     0.0388443  
H262     H      0.601720000000     0.306640000000     0.634250000000     0.0388721  
H263     H      0.658530000000     0.306650000000     0.634240000000     0.0388163  
H264     H      0.658280000000     0.206390000000     0.629240000000     0.0389447  
H265     H      0.908290000000     0.055400000000     0.631920000000     0.0398005  
H266     H      0.908410000000     0.455020000000     0.631810000000     0.0396293  
H267     H      0.851850000000     0.454900000000     0.631940000000     0.0388915  
H268     H      0.851730000000     0.055280000000     0.631790000000     0.0394208  
H269     H      0.601730000000     0.055290000000     0.631790000000     0.0388536  
H270     H      0.601850000000     0.454910000000     0.631900000000     0.0388884  
H271     H      0.658410000000     0.455030000000     0.631770000000     0.0390758  
H272     H      0.658290000000     0.055410000000     0.631920000000     0.0386384  
H273     H      0.754950000000     0.204860000000     0.478050000000     0.0389096  
H274     H      0.755370000000     0.305240000000     0.478050000000     0.0389354  
H275     H      0.755270000000     0.305240000000     0.534760000000     0.038995   
H276     H      0.755020000000     0.204860000000     0.534770000000     0.038919   
H277     H      0.755050000000     0.454950000000     0.478060000000     0.0389587  
H278     H      0.755150000000     0.055330000000     0.478050000000     0.038986   
H279     H      0.755040000000     0.055340000000     0.534770000000     0.0389734  
H280     H      0.755140000000     0.454960000000     0.534780000000     0.0389527  
H281     H      0.003570000000     0.204890000000     0.478060000000     0.0381631  
H282     H      0.506710000000     0.305220000000     0.478050000000     0.038858   
H283     H      0.506690000000     0.305220000000     0.534760000000     0.0388901  
H284     H      0.003570000000     0.204890000000     0.534770000000     0.0381374  
H285     H      0.908500000000     0.305210000000     0.381080000000     0.0398084  
H286     H      0.908380000000     0.204830000000     0.380840000000     0.0395795  
H287     H      0.851820000000     0.204950000000     0.380970000000     0.0392288  
H288     H      0.851930000000     0.305330000000     0.380940000000     0.0390217  
H289     H      0.658490000000     0.305160000000     0.381000000000     0.0389449  
H290     H      0.658380000000     0.204780000000     0.380960000000     0.0386873  
H291     H      0.601810000000     0.204890000000     0.381090000000     0.0389171  
H292     H      0.601930000000     0.305270000000     0.380870000000     0.0387494  
H293     H      0.505030000000     0.454960000000     0.478060000000     0.0388589  
H294     H      0.005140000000     0.055340000000     0.478050000000     0.0382089  
H295     H      0.005030000000     0.055340000000     0.534770000000     0.0382631  
H296     H      0.505110000000     0.454960000000     0.534780000000     0.0388583  
H297     H      0.908450000000     0.055270000000     0.381020000000     0.039813   
H298     H      0.908330000000     0.454890000000     0.380900000000     0.0396171  
H299     H      0.851760000000     0.455000000000     0.381040000000     0.0392469  
H300     H      0.851880000000     0.055380000000     0.380890000000     0.0390488  
H301     H      0.601760000000     0.455000000000     0.381060000000     0.0389543  
H302     H      0.601880000000     0.055380000000     0.380920000000     0.0387694  
H303     H      0.658450000000     0.055270000000     0.381040000000     0.0389688  
H304     H      0.658330000000     0.454890000000     0.380920000000     0.0387478  
H305     H      0.720190000000     0.219180000000     0.727730000000     0.035753   
H306     H      0.790020000000     0.291020000000     0.727720000000     0.0358865  
H307     H      0.791700000000     0.289310000000     0.785080000000     0.0358311  
H308     H      0.718480000000     0.220940000000     0.785090000000     0.0356642  
H309     H      0.791340000000     0.039700000000     0.785100000000     0.0357437  
H310     H      0.718790000000     0.470620000000     0.785100000000     0.0358617  
H311     H      0.720520000000     0.468890000000     0.727730000000     0.0358857  
H312     H      0.789600000000     0.041430000000     0.727730000000     0.0358853  
H313     H      0.805330000000     0.408370000000     0.880880000000     0.038733   
H314     H      0.704950000000     0.408480000000     0.881040000000     0.039053   
H315     H      0.704840000000     0.351920000000     0.880910000000     0.0389177  
H316     H      0.805220000000     0.351800000000     0.881010000000     0.0388795  
H317     H      0.805200000000     0.101800000000     0.881060000000     0.0390787  
H318     H      0.704820000000     0.101920000000     0.880910000000     0.0384784  
H319     H      0.704940000000     0.158490000000     0.881040000000     0.0387601  
H320     H      0.805320000000     0.158370000000     0.880930000000     0.0389901  
H321     H      0.541390000000     0.220540000000     0.785100000000     0.0357363  
H322     H      0.968880000000     0.289660000000     0.785090000000     0.0359599  
H323     H      0.970570000000     0.291340000000     0.727740000000     0.0362893  
H324     H      0.539690000000     0.218830000000     0.727750000000     0.0357329  
H325     H      0.969200000000     0.470230000000     0.785110000000     0.0359532  
H326     H      0.541030000000     0.040050000000     0.785100000000     0.0355142  
H327     H      0.539270000000     0.041760000000     0.727740000000     0.0356032  
H328     H      0.970910000000     0.468540000000     0.727750000000     0.0362349  
H329     H      0.056710000000     0.408530000000     0.878550000000     0.0388433  
H330     H      0.456460000000     0.408270000000     0.883590000000     0.038963   
H331     H      0.456450000000     0.351970000000     0.883590000000     0.0389609  
H332     H      0.056710000000     0.351710000000     0.878550000000     0.0388829  
H333     H      0.553820000000     0.101970000000     0.883600000000     0.0388333  
H334     H      0.953570000000     0.101710000000     0.878590000000     0.0384513  
H335     H      0.953570000000     0.158530000000     0.878590000000     0.0385948  
H336     H      0.553830000000     0.158270000000     0.883600000000     0.0388876  
H337     H      0.718840000000     0.289610000000     0.227750000000     0.035839   
H338     H      0.791390000000     0.220550000000     0.227710000000     0.0358625  
H339     H      0.789680000000     0.218800000000     0.285080000000     0.0359143  
H340     H      0.720590000000     0.291330000000     0.285110000000     0.0357935  
H341     H      0.704890000000     0.255080000000     0.034780000000     0.0388399  
H342     H      0.805270000000     0.255190000000     0.034770000000     0.0389878  
H343     H      0.805270000000     0.255100000000     0.978060000000     0.0389347  
H344     H      0.704890000000     0.255190000000     0.978060000000     0.038843   
H345     H      0.718830000000     0.039660000000     0.227730000000     0.0355253  
H346     H      0.791370000000     0.470580000000     0.227730000000     0.035916   
H347     H      0.789640000000     0.468850000000     0.285100000000     0.0359114  
H348     H      0.720570000000     0.041400000000     0.285090000000     0.0356684  
H349     H      0.704900000000     0.505060000000     0.034780000000     0.0388172  
H350     H      0.805280000000     0.005160000000     0.034770000000     0.0382682  
H351     H      0.805280000000     0.005070000000     0.978050000000     0.0382612  
H352     H      0.704900000000     0.505170000000     0.978060000000     0.0388577  
H353     H      0.704970000000     0.351770000000     0.131810000000     0.0389686  
H354     H      0.805350000000     0.351890000000     0.131930000000     0.0388435  
H355     H      0.805230000000     0.408450000000     0.131800000000     0.0390758  
H356     H      0.704850000000     0.408330000000     0.131940000000     0.038729   
H357     H      0.704970000000     0.101770000000     0.131790000000     0.0388352  
H358     H      0.805350000000     0.101890000000     0.131900000000     0.0386925  
H359     H      0.805230000000     0.158450000000     0.131770000000     0.0390365  
H360     H      0.704850000000     0.158330000000     0.131910000000     0.0386835  
H361     H      0.541430000000     0.220530000000     0.227730000000     0.0357847  
H362     H      0.968890000000     0.289610000000     0.227740000000     0.0360653  
H363     H      0.970620000000     0.291330000000     0.285110000000     0.0363606  
H364     H      0.539700000000     0.218790000000     0.285100000000     0.0357921  
H365     H      0.954990000000     0.253540000000     0.034790000000     0.0385832  
H366     H      0.555320000000     0.256690000000     0.034780000000     0.0388457  
H367     H      0.555310000000     0.256680000000     0.978070000000     0.038871   
H368     H      0.954990000000     0.253560000000     0.978080000000     0.0385697  
H369     H      0.968880000000     0.039650000000     0.227720000000     0.0357954  
H370     H      0.541410000000     0.470570000000     0.227750000000     0.035788   
H371     H      0.539670000000     0.468840000000     0.285120000000     0.0357997  
H372     H      0.970600000000     0.041400000000     0.285090000000     0.0361951  
H373     H      0.555350000000     0.505300000000     0.034780000000     0.0388357  
H374     H      0.954970000000     0.004870000000     0.034790000000     0.0378788  
H375     H      0.954970000000     0.004970000000     0.978070000000     0.0378693  
H376     H      0.555350000000     0.505220000000     0.978060000000     0.0388262  
H377     H      0.954880000000     0.408320000000     0.131900000000     0.0384605  
H378     H      0.555270000000     0.408430000000     0.131860000000     0.0389708  
H379     H      0.555380000000     0.351870000000     0.132000000000     0.0387321  
H380     H      0.955000000000     0.351750000000     0.131770000000     0.0386496  
H381     H      0.555430000000     0.101860000000     0.131870000000     0.0385999  
H382     H      0.955050000000     0.101750000000     0.131840000000     0.0385473  
H383     H      0.954940000000     0.158310000000     0.131970000000     0.0384327  
H384     H      0.555320000000     0.158430000000     0.131740000000     0.0389075  
H385     H      0.908270000000     0.803760000000     0.629240000000     0.0398394  
H386     H      0.908540000000     0.703500000000     0.634280000000     0.0397367  
H387     H      0.851720000000     0.703500000000     0.634280000000     0.0391045  
H388     H      0.851970000000     0.803750000000     0.629240000000     0.0393286  
H389     H      0.601980000000     0.706380000000     0.629240000000     0.0388509  
H390     H      0.601720000000     0.806640000000     0.634250000000     0.0389621  
H391     H      0.658530000000     0.806650000000     0.634240000000     0.038902   
H392     H      0.658280000000     0.706390000000     0.629240000000     0.038953   
H393     H      0.908290000000     0.555400000000     0.631920000000     0.0397586  
H394     H      0.908410000000     0.955020000000     0.631810000000     0.0393024  
H395     H      0.851850000000     0.954900000000     0.631940000000     0.0386006  
H396     H      0.851730000000     0.555280000000     0.631790000000     0.0393643  
H397     H      0.601730000000     0.555290000000     0.631790000000     0.0387977  
H398     H      0.601850000000     0.954910000000     0.631900000000     0.0385967  
H399     H      0.658410000000     0.955030000000     0.631770000000     0.0387489  
H400     H      0.658290000000     0.555410000000     0.631920000000     0.0385974  
H401     H      0.754950000000     0.704860000000     0.478050000000     0.0389158  
H402     H      0.755370000000     0.805240000000     0.478050000000     0.0390058  
H403     H      0.755270000000     0.805240000000     0.534760000000     0.0390656  
H404     H      0.755020000000     0.704860000000     0.534770000000     0.0389253  
H405     H      0.755050000000     0.954960000000     0.478060000000     0.0386368  
H406     H      0.755150000000     0.555340000000     0.478050000000     0.0389301  
H407     H      0.755040000000     0.555340000000     0.534770000000     0.0389258  
H408     H      0.755140000000     0.954960000000     0.534780000000     0.038629   
H409     H      0.003570000000     0.704890000000     0.478060000000     0.0381681  
H410     H      0.506710000000     0.805220000000     0.478050000000     0.0389289  
H411     H      0.506690000000     0.805220000000     0.534760000000     0.038961   
H412     H      0.003570000000     0.704890000000     0.534770000000     0.0381423  
H413     H      0.908500000000     0.805210000000     0.381080000000     0.0398916  
H414     H      0.908380000000     0.704830000000     0.380840000000     0.0395867  
H415     H      0.851820000000     0.704950000000     0.380970000000     0.0392379  
H416     H      0.851930000000     0.805330000000     0.380940000000     0.0391031  
H417     H      0.658490000000     0.805160000000     0.381000000000     0.0390316  
H418     H      0.658380000000     0.704780000000     0.380960000000     0.0387087  
H419     H      0.601810000000     0.704890000000     0.381090000000     0.038895   
H420     H      0.601930000000     0.805270000000     0.380870000000     0.0388299  
H421     H      0.505030000000     0.954960000000     0.478060000000     0.0385329  
H422     H      0.005140000000     0.555340000000     0.478050000000     0.0381707  
H423     H      0.005030000000     0.555340000000     0.534770000000     0.038182   
H424     H      0.505110000000     0.954960000000     0.534780000000     0.03854    
H425     H      0.908450000000     0.555270000000     0.381020000000     0.0397909  
H426     H      0.908330000000     0.954890000000     0.380900000000     0.0393252  
H427     H      0.851760000000     0.955000000000     0.381040000000     0.0389217  
H428     H      0.851880000000     0.555380000000     0.380890000000     0.0389914  
H429     H      0.601760000000     0.955000000000     0.381060000000     0.0386101  
H430     H      0.601880000000     0.555380000000     0.380920000000     0.0386923  
H431     H      0.658450000000     0.555270000000     0.381040000000     0.038954   
H432     H      0.658330000000     0.954890000000     0.380920000000     0.038465   
H433     H      0.720190000000     0.719180000000     0.727730000000     0.0357657  
H434     H      0.790020000000     0.791020000000     0.727720000000     0.0359736  
H435     H      0.791700000000     0.789310000000     0.785080000000     0.0359342  
H436     H      0.718480000000     0.720940000000     0.785090000000     0.0356792  
H437     H      0.791340000000     0.539700000000     0.785100000000     0.0359462  
H438     H      0.718790000000     0.970620000000     0.785100000000     0.036396   
H439     H      0.720520000000     0.968890000000     0.727730000000     0.0360958  
H440     H      0.789600000000     0.541430000000     0.727730000000     0.0360332  
H441     H      0.805330000000     0.908370000000     0.880880000000     0.0395867  
H442     H      0.704950000000     0.908480000000     0.881040000000     0.039873   
H443     H      0.704840000000     0.851920000000     0.880910000000     0.0391867  
H444     H      0.805220000000     0.851800000000     0.881010000000     0.0391535  
H445     H      0.805200000000     0.601800000000     0.881060000000     0.0391779  
H446     H      0.704820000000     0.601920000000     0.880910000000     0.0386003  
H447     H      0.704940000000     0.658490000000     0.881040000000     0.038784   
H448     H      0.805320000000     0.658370000000     0.880930000000     0.0390057  
H449     H      0.541390000000     0.720540000000     0.785100000000     0.0357483  
H450     H      0.968880000000     0.789660000000     0.785090000000     0.0360564  
H451     H      0.970570000000     0.791340000000     0.727740000000     0.0363678  
H452     H      0.539690000000     0.718830000000     0.727750000000     0.0357417  
H453     H      0.969200000000     0.970230000000     0.785110000000     0.0364822  
H454     H      0.541030000000     0.540050000000     0.785100000000     0.0357488  
H455     H      0.539270000000     0.541760000000     0.727740000000     0.035718   
H456     H      0.970910000000     0.968540000000     0.727750000000     0.0364393  
H457     H      0.056710000000     0.908530000000     0.878550000000     0.0396878  
H458     H      0.456460000000     0.908270000000     0.883590000000     0.0397947  
H459     H      0.456450000000     0.851970000000     0.883590000000     0.0392344  
H460     H      0.056710000000     0.851710000000     0.878550000000     0.0391687  
H461     H      0.553820000000     0.601970000000     0.883600000000     0.038947   
H462     H      0.953570000000     0.601710000000     0.878590000000     0.0385768  
H463     H      0.953570000000     0.658530000000     0.878590000000     0.0386142  
H464     H      0.553830000000     0.658260000000     0.883600000000     0.0388913  
H465     H      0.718840000000     0.789610000000     0.227750000000     0.035943   
H466     H      0.791390000000     0.720550000000     0.227710000000     0.035876   
H467     H      0.789680000000     0.718800000000     0.285080000000     0.0359261  
H468     H      0.720590000000     0.791330000000     0.285110000000     0.0358816  
H469     H      0.704890000000     0.755080000000     0.034780000000     0.0389161  
H470     H      0.805270000000     0.755190000000     0.034770000000     0.0390634  
H471     H      0.805270000000     0.755110000000     0.978060000000     0.0390111  
H472     H      0.704890000000     0.755190000000     0.978060000000     0.0389195  
H473     H      0.718830000000     0.539660000000     0.227730000000     0.0357866  
H474     H      0.791370000000     0.970580000000     0.227730000000     0.0364355  
H475     H      0.789640000000     0.968850000000     0.285100000000     0.0361494  
H476     H      0.720570000000     0.541400000000     0.285090000000     0.0357768  
H477     H      0.704900000000     0.005060000000     0.034780000000     0.038158   
H478     H      0.805280000000     0.505160000000     0.034770000000     0.0389348  
H479     H      0.805280000000     0.505080000000     0.978050000000     0.0389183  
H480     H      0.704900000000     0.005170000000     0.978060000000     0.0381903  
H481     H      0.704970000000     0.851770000000     0.131810000000     0.0392427  
H482     H      0.805350000000     0.851890000000     0.131930000000     0.0391061  
H483     H      0.805230000000     0.908450000000     0.131800000000     0.0398955  
H484     H      0.704850000000     0.908330000000     0.131940000000     0.0395815  
H485     H      0.704970000000     0.601770000000     0.131790000000     0.0389458  
H486     H      0.805350000000     0.601890000000     0.131900000000     0.0388198  
H487     H      0.805230000000     0.658450000000     0.131770000000     0.0390538  
H488     H      0.704850000000     0.658330000000     0.131910000000     0.0386976  
H489     H      0.541430000000     0.720530000000     0.227730000000     0.0357989  
H490     H      0.968890000000     0.789610000000     0.227740000000     0.0361679  
H491     H      0.970620000000     0.791330000000     0.285110000000     0.036447   
H492     H      0.539700000000     0.718790000000     0.285100000000     0.0358035  
H493     H      0.954990000000     0.753540000000     0.034790000000     0.0386546  
H494     H      0.555320000000     0.756690000000     0.034780000000     0.0389272  
H495     H      0.555310000000     0.756680000000     0.978070000000     0.0389528  
H496     H      0.954990000000     0.753560000000     0.978080000000     0.038641   
H497     H      0.968880000000     0.539650000000     0.227720000000     0.0360316  
H498     H      0.541410000000     0.970570000000     0.227750000000     0.0363031  
H499     H      0.539670000000     0.968840000000     0.285120000000     0.0360366  
H500     H      0.970600000000     0.541400000000     0.285090000000     0.036315   
H501     H      0.555350000000     0.005300000000     0.034780000000     0.0381713  
H502     H      0.954970000000     0.504870000000     0.034790000000     0.0385389  
H503     H      0.954970000000     0.504970000000     0.978070000000     0.0385354  
H504     H      0.555350000000     0.005220000000     0.978060000000     0.0381681  
H505     H      0.954880000000     0.908320000000     0.131900000000     0.0393124  
H506     H      0.555270000000     0.908430000000     0.131860000000     0.0397925  
H507     H      0.555380000000     0.851870000000     0.132000000000     0.0390008  
H508     H      0.955000000000     0.851750000000     0.131770000000     0.0389228  
H509     H      0.555430000000     0.601860000000     0.131870000000     0.0387172  
H510     H      0.955050000000     0.601750000000     0.131840000000     0.0386481  
H511     H      0.954940000000     0.658310000000     0.131970000000     0.0384486  
H512     H      0.555320000000     0.658430000000     0.131740000000     0.0389424  
N1       N      0.412900000000     0.253610000000     0.631760000000    -0.180196   
N2       N      0.347350000000     0.253610000000     0.631760000000    -0.180198   
N3       N      0.097350000000     0.256530000000     0.631750000000    -0.180131   
N4       N      0.162900000000     0.256540000000     0.631740000000    -0.180221   
N5       N      0.412840000000     0.005240000000     0.631840000000    -0.182478   
N6       N      0.347310000000     0.505060000000     0.631840000000    -0.180199   
N7       N      0.097310000000     0.005070000000     0.631830000000    -0.182403   
N8       N      0.162840000000     0.505250000000     0.631820000000    -0.180219   
N9       N      0.255160000000     0.255050000000     0.473550000000    -0.180167   
N10      N      0.255140000000     0.255050000000     0.539260000000    -0.18004    
N11      N      0.255100000000     0.005140000000     0.473560000000    -0.18238    
N12      N      0.255090000000     0.505150000000     0.539270000000    -0.180115   
N13      N      0.005140000000     0.255050000000     0.473550000000    -0.180301   
N14      N      0.005130000000     0.255060000000     0.539270000000    -0.180294   
N15      N      0.412920000000     0.254990000000     0.380990000000    -0.180175   
N16      N      0.347390000000     0.255170000000     0.380980000000    -0.180202   
N17      N      0.162920000000     0.254940000000     0.381000000000    -0.180236   
N18      N      0.097390000000     0.255110000000     0.381000000000    -0.180154   
N19      N      0.005080000000     0.505150000000     0.473560000000    -0.180239   
N20      N      0.005070000000     0.005150000000     0.539270000000    -0.182458   
N21      N      0.412870000000     0.505050000000     0.380990000000    -0.180197   
N22      N      0.347340000000     0.005230000000     0.380990000000    -0.182493   
N23      N      0.097340000000     0.505230000000     0.381010000000    -0.180174   
N24      N      0.162870000000     0.005050000000     0.381000000000    -0.182486   
N25      N      0.255110000000     0.255100000000     0.723810000000    -0.181335   
N26      N      0.255090000000     0.255120000000     0.789010000000    -0.181416   
N27      N      0.255070000000     0.505160000000     0.789010000000    -0.181515   
N28      N      0.255060000000     0.505160000000     0.723820000000    -0.181359   
N29      N      0.255170000000     0.412910000000     0.880980000000    -0.180214   
N30      N      0.254990000000     0.347380000000     0.880990000000    -0.180199   
N31      N      0.254980000000     0.097380000000     0.881010000000    -0.180124   
N32      N      0.255160000000     0.162910000000     0.881010000000    -0.18021    
N33      N      0.005130000000     0.255100000000     0.789030000000    -0.183554   
N34      N      0.005130000000     0.255080000000     0.723810000000    -0.184686   
N35      N      0.005110000000     0.005140000000     0.789030000000    -0.186886   
N36      N      0.005090000000     0.005150000000     0.723820000000    -0.186903   
N37      N      0.006600000000     0.412890000000     0.881070000000    -0.182461   
N38      N      0.006600000000     0.347350000000     0.881070000000    -0.182421   
N39      N      0.003680000000     0.097350000000     0.881090000000    -0.18231    
N40      N      0.003680000000     0.162890000000     0.881090000000    -0.182439   
N41      N      0.255120000000     0.255080000000     0.223820000000    -0.181402   
N42      N      0.255140000000     0.255070000000     0.289010000000    -0.181479   
N43      N      0.255080000000     0.255130000000     0.039270000000    -0.180066   
N44      N      0.255080000000     0.255150000000     0.973560000000    -0.180114   
N45      N      0.255100000000     0.005120000000     0.223820000000    -0.18473    
N46      N      0.255110000000     0.005130000000     0.289010000000    -0.183631   
N47      N      0.255090000000     0.005110000000     0.039270000000    -0.18024    
N48      N      0.255090000000     0.505120000000     0.973560000000    -0.180075   
N49      N      0.255190000000     0.347340000000     0.131850000000    -0.180219   
N50      N      0.255010000000     0.412880000000     0.131840000000    -0.180214   
N51      N      0.255190000000     0.097340000000     0.131820000000    -0.180205   
N52      N      0.255010000000     0.162880000000     0.131820000000    -0.18022    
N53      N      0.005160000000     0.255070000000     0.223820000000    -0.183675   
N54      N      0.005160000000     0.255060000000     0.289020000000    -0.184824   
N55      N      0.005160000000     0.255110000000     0.039290000000    -0.182412   
N56      N      0.005150000000     0.255120000000     0.973570000000    -0.182407   
N57      N      0.005150000000     0.505110000000     0.223830000000    -0.183571   
N58      N      0.005130000000     0.505120000000     0.289020000000    -0.184813   
N59      N      0.005160000000     0.005090000000     0.039280000000    -0.182477   
N60      N      0.005160000000     0.005100000000     0.973570000000    -0.182459   
N61      N      0.005040000000     0.412860000000     0.131850000000    -0.182472   
N62      N      0.005220000000     0.347320000000     0.131860000000    -0.182496   
N63      N      0.005280000000     0.097320000000     0.131830000000    -0.182383   
N64      N      0.005100000000     0.162860000000     0.131830000000    -0.182502   
N65      N      0.412900000000     0.753610000000     0.631760000000    -0.180196   
N66      N      0.347350000000     0.753610000000     0.631760000000    -0.180197   
N67      N      0.097350000000     0.756530000000     0.631750000000    -0.180163   
N68      N      0.162900000000     0.756540000000     0.631740000000    -0.180209   
N69      N      0.412840000000     0.505240000000     0.631840000000    -0.180219   
N70      N      0.347310000000     0.005060000000     0.631840000000    -0.182457   
N71      N      0.097310000000     0.505070000000     0.631830000000    -0.180147   
N72      N      0.162840000000     0.005250000000     0.631820000000    -0.182475   
N73      N      0.255160000000     0.755050000000     0.473550000000    -0.180167   
N74      N      0.255140000000     0.755050000000     0.539260000000    -0.180041   
N75      N      0.255100000000     0.505140000000     0.473560000000    -0.180077   
N76      N      0.255090000000     0.005150000000     0.539270000000    -0.182377   
N77      N      0.005140000000     0.755050000000     0.473550000000    -0.180301   
N78      N      0.005130000000     0.755060000000     0.539270000000    -0.180295   
N79      N      0.412920000000     0.754990000000     0.380990000000    -0.180174   
N80      N      0.347390000000     0.755170000000     0.380980000000    -0.180201   
N81      N      0.162920000000     0.754940000000     0.381000000000    -0.180225   
N82      N      0.097390000000     0.755110000000     0.381000000000    -0.180187   
N83      N      0.005080000000     0.005150000000     0.473560000000    -0.182504   
N84      N      0.005070000000     0.505150000000     0.539270000000    -0.180237   
N85      N      0.412870000000     0.005050000000     0.380990000000    -0.182485   
N86      N      0.347340000000     0.505230000000     0.380990000000    -0.180243   
N87      N      0.097340000000     0.005220000000     0.381010000000    -0.182423   
N88      N      0.162870000000     0.505050000000     0.381000000000    -0.180199   
N89      N      0.255110000000     0.755100000000     0.723810000000    -0.18133    
N90      N      0.255090000000     0.755120000000     0.789010000000    -0.181408   
N91      N      0.255070000000     0.005160000000     0.789010000000    -0.184796   
N92      N      0.255060000000     0.005160000000     0.723820000000    -0.183567   
N93      N      0.255170000000     0.912910000000     0.880980000000    -0.179684   
N94      N      0.254990000000     0.847380000000     0.880990000000    -0.180156   
N95      N      0.254980000000     0.597380000000     0.881010000000    -0.180202   
N96      N      0.255160000000     0.662910000000     0.881010000000    -0.18022    
N97      N      0.005130000000     0.755100000000     0.789030000000    -0.183544   
N98      N      0.005130000000     0.755080000000     0.723810000000    -0.184678   
N99      N      0.005110000000     0.505140000000     0.789030000000    -0.183593   
N100     N      0.005090000000     0.505150000000     0.723820000000    -0.184747   
N101     N      0.006600000000     0.912890000000     0.881070000000    -0.181926   
N102     N      0.006600000000     0.847350000000     0.881070000000    -0.182363   
N103     N      0.003680000000     0.597350000000     0.881090000000    -0.182377   
N104     N      0.003680000000     0.662890000000     0.881090000000    -0.182445   
N105     N      0.255120000000     0.755080000000     0.223820000000    -0.181396   
N106     N      0.255140000000     0.755070000000     0.289010000000    -0.181473   
N107     N      0.255080000000     0.755130000000     0.039270000000    -0.180046   
N108     N      0.255080000000     0.755150000000     0.973560000000    -0.180091   
N109     N      0.255100000000     0.505120000000     0.223820000000    -0.181385   
N110     N      0.255100000000     0.505130000000     0.289010000000    -0.181486   
N111     N      0.255090000000     0.505110000000     0.039270000000    -0.180113   
N112     N      0.255090000000     0.005130000000     0.973560000000    -0.180201   
N113     N      0.255190000000     0.847340000000     0.131850000000    -0.180171   
N114     N      0.255010000000     0.912880000000     0.131840000000    -0.179685   
N115     N      0.255190000000     0.597340000000     0.131820000000    -0.180211   
N116     N      0.255010000000     0.662880000000     0.131820000000    -0.180228   
N117     N      0.005160000000     0.755070000000     0.223820000000    -0.183666   
N118     N      0.005160000000     0.755060000000     0.289020000000    -0.184817   
N119     N      0.005160000000     0.755110000000     0.039290000000    -0.182389   
N120     N      0.005150000000     0.755120000000     0.973570000000    -0.182385   
N121     N      0.005150000000     0.005110000000     0.223830000000    -0.186867   
N122     N      0.005130000000     0.005120000000     0.289020000000    -0.187001   
N123     N      0.005160000000     0.505080000000     0.039280000000    -0.182357   
N124     N      0.005160000000     0.505100000000     0.973570000000    -0.182338   
N125     N      0.005040000000     0.912860000000     0.131850000000    -0.181938   
N126     N      0.005220000000     0.847320000000     0.131860000000    -0.18245    
N127     N      0.005280000000     0.597320000000     0.131830000000    -0.182465   
N128     N      0.005100000000     0.662860000000     0.131830000000    -0.182496   
N129     N      0.912900000000     0.253610000000     0.631760000000    -0.179667   
N130     N      0.847350000000     0.253610000000     0.631760000000    -0.180163   
N131     N      0.597350000000     0.256530000000     0.631750000000    -0.180238   
N132     N      0.662900000000     0.256540000000     0.631740000000    -0.180201   
N133     N      0.912840000000     0.005240000000     0.631840000000    -0.181934   
N134     N      0.847310000000     0.505060000000     0.631840000000    -0.180157   
N135     N      0.597300000000     0.005070000000     0.631830000000    -0.182481   
N136     N      0.662840000000     0.505250000000     0.631820000000    -0.180225   
N137     N      0.755160000000     0.255050000000     0.473550000000    -0.180145   
N138     N      0.755150000000     0.255050000000     0.539260000000    -0.180017   
N139     N      0.755100000000     0.005140000000     0.473560000000    -0.182357   
N140     N      0.755090000000     0.505150000000     0.539270000000    -0.180093   
N141     N      0.505140000000     0.255050000000     0.473550000000    -0.180173   
N142     N      0.505130000000     0.255060000000     0.539270000000    -0.180169   
N143     N      0.912920000000     0.254990000000     0.380990000000    -0.179649   
N144     N      0.847390000000     0.255170000000     0.380980000000    -0.180161   
N145     N      0.662920000000     0.254940000000     0.381000000000    -0.180239   
N146     N      0.597390000000     0.255110000000     0.381000000000    -0.180238   
N147     N      0.505080000000     0.505150000000     0.473560000000    -0.180113   
N148     N      0.505070000000     0.005150000000     0.539270000000    -0.182336   
N149     N      0.912870000000     0.505050000000     0.380990000000    -0.179666   
N150     N      0.847340000000     0.005230000000     0.380990000000    -0.182439   
N151     N      0.597340000000     0.505230000000     0.381010000000    -0.180251   
N152     N      0.662870000000     0.005050000000     0.381000000000    -0.182499   
N153     N      0.755110000000     0.255100000000     0.723810000000    -0.181325   
N154     N      0.755090000000     0.255120000000     0.789010000000    -0.18141    
N155     N      0.755070000000     0.505160000000     0.789010000000    -0.18151    
N156     N      0.755060000000     0.505160000000     0.723820000000    -0.181352   
N157     N      0.755170000000     0.412910000000     0.880980000000    -0.180211   
N158     N      0.755000000000     0.347380000000     0.880990000000    -0.180204   
N159     N      0.754980000000     0.097380000000     0.881010000000    -0.180123   
N160     N      0.755160000000     0.162910000000     0.881010000000    -0.180209   
N161     N      0.505130000000     0.255100000000     0.789030000000    -0.181379   
N162     N      0.505130000000     0.255080000000     0.723810000000    -0.181377   
N163     N      0.505110000000     0.005140000000     0.789030000000    -0.184737   
N164     N      0.505090000000     0.005150000000     0.723820000000    -0.183583   
N165     N      0.506600000000     0.412890000000     0.881070000000    -0.1802     
N166     N      0.506600000000     0.347350000000     0.881070000000    -0.180126   
N167     N      0.503670000000     0.097350000000     0.881090000000    -0.180071   
N168     N      0.503680000000     0.162890000000     0.881090000000    -0.180195   
N169     N      0.755120000000     0.255080000000     0.223820000000    -0.181396   
N170     N      0.755130000000     0.255070000000     0.289010000000    -0.181471   
N171     N      0.755080000000     0.255130000000     0.039270000000    -0.180067   
N172     N      0.755080000000     0.255150000000     0.973560000000    -0.180115   
N173     N      0.755100000000     0.005120000000     0.223820000000    -0.18472    
N174     N      0.755100000000     0.005130000000     0.289010000000    -0.183618   
N175     N      0.755090000000     0.005110000000     0.039270000000    -0.180239   
N176     N      0.755090000000     0.505120000000     0.973560000000    -0.180075   
N177     N      0.755190000000     0.347340000000     0.131850000000    -0.18022    
N178     N      0.755010000000     0.412880000000     0.131840000000    -0.18016    
N179     N      0.755190000000     0.097340000000     0.131820000000    -0.180203   
N180     N      0.755010000000     0.162880000000     0.131820000000    -0.180219   
N181     N      0.505160000000     0.255070000000     0.223820000000    -0.181446   
N182     N      0.505160000000     0.255060000000     0.289020000000    -0.181513   
N183     N      0.505160000000     0.255110000000     0.039290000000    -0.180164   
N184     N      0.505150000000     0.255120000000     0.973570000000    -0.180151   
N185     N      0.505150000000     0.505110000000     0.223830000000    -0.181398   
N186     N      0.505130000000     0.505120000000     0.289020000000    -0.181491   
N187     N      0.505160000000     0.005080000000     0.039280000000    -0.180233   
N188     N      0.505160000000     0.005100000000     0.973570000000    -0.180211   
N189     N      0.505040000000     0.412860000000     0.131850000000    -0.180224   
N190     N      0.505220000000     0.347320000000     0.131860000000    -0.180235   
N191     N      0.505280000000     0.097320000000     0.131830000000    -0.180127   
N192     N      0.505100000000     0.162860000000     0.131830000000    -0.180251   
N193     N      0.912900000000     0.753610000000     0.631760000000    -0.179667   
N194     N      0.847350000000     0.753610000000     0.631760000000    -0.180162   
N195     N      0.597350000000     0.756530000000     0.631750000000    -0.180236   
N196     N      0.662900000000     0.756540000000     0.631740000000    -0.1802     
N197     N      0.912840000000     0.505240000000     0.631840000000    -0.179678   
N198     N      0.847310000000     0.005060000000     0.631840000000    -0.182411   
N199     N      0.597300000000     0.505070000000     0.631830000000    -0.180225   
N200     N      0.662840000000     0.005250000000     0.631820000000    -0.182485   
N201     N      0.755160000000     0.755050000000     0.473550000000    -0.180146   
N202     N      0.755150000000     0.755050000000     0.539260000000    -0.180018   
N203     N      0.755100000000     0.505140000000     0.473560000000    -0.180055   
N204     N      0.755090000000     0.005150000000     0.539270000000    -0.182354   
N205     N      0.505140000000     0.755050000000     0.473550000000    -0.180174   
N206     N      0.505130000000     0.755060000000     0.539270000000    -0.18017    
N207     N      0.912920000000     0.754990000000     0.380990000000    -0.179649   
N208     N      0.847390000000     0.755170000000     0.380980000000    -0.18016    
N209     N      0.662920000000     0.754940000000     0.381000000000    -0.180228   
N210     N      0.597390000000     0.755110000000     0.381000000000    -0.180271   
N211     N      0.505080000000     0.005150000000     0.473560000000    -0.182384   
N212     N      0.505070000000     0.505150000000     0.539270000000    -0.180108   
N213     N      0.912870000000     0.005050000000     0.380990000000    -0.181951   
N214     N      0.847340000000     0.505230000000     0.380990000000    -0.180193   
N215     N      0.597340000000     0.005220000000     0.381010000000    -0.182502   
N216     N      0.662870000000     0.505050000000     0.381000000000    -0.18021    
N217     N      0.755110000000     0.755100000000     0.723810000000    -0.18132    
N218     N      0.755090000000     0.755120000000     0.789010000000    -0.181401   
N219     N      0.755070000000     0.005160000000     0.789010000000    -0.18479    
N220     N      0.755060000000     0.005160000000     0.723820000000    -0.183559   
N221     N      0.755170000000     0.912910000000     0.880980000000    -0.179681   
N222     N      0.755000000000     0.847380000000     0.880990000000    -0.18016    
N223     N      0.754980000000     0.597380000000     0.881010000000    -0.180201   
N224     N      0.755160000000     0.662910000000     0.881010000000    -0.180218   
N225     N      0.505130000000     0.755100000000     0.789030000000    -0.181371   
N226     N      0.505130000000     0.755080000000     0.723810000000    -0.181372   
N227     N      0.505110000000     0.505140000000     0.789030000000    -0.181423   
N228     N      0.505090000000     0.505150000000     0.723820000000    -0.181408   
N229     N      0.506600000000     0.912890000000     0.881070000000    -0.179669   
N230     N      0.506600000000     0.847350000000     0.881070000000    -0.180084   
N231     N      0.503670000000     0.597350000000     0.881090000000    -0.180135   
N232     N      0.503680000000     0.662890000000     0.881090000000    -0.180199   
N233     N      0.755120000000     0.755080000000     0.223820000000    -0.181391   
N234     N      0.755130000000     0.755070000000     0.289010000000    -0.181466   
N235     N      0.755080000000     0.755130000000     0.039270000000    -0.180047   
N236     N      0.755080000000     0.755150000000     0.973560000000    -0.180091   
N237     N      0.755100000000     0.505120000000     0.223820000000    -0.181377   
N238     N      0.755100000000     0.505130000000     0.289010000000    -0.181476   
N239     N      0.755090000000     0.505110000000     0.039270000000    -0.180112   
N240     N      0.755090000000     0.005130000000     0.973560000000    -0.180201   
N241     N      0.755190000000     0.847340000000     0.131850000000    -0.180172   
N242     N      0.755010000000     0.912880000000     0.131840000000    -0.179631   
N243     N      0.755190000000     0.597340000000     0.131820000000    -0.180209   
N244     N      0.755010000000     0.662880000000     0.131820000000    -0.180227   
N245     N      0.505160000000     0.755070000000     0.223820000000    -0.181439   
N246     N      0.505160000000     0.755060000000     0.289020000000    -0.181508   
N247     N      0.505160000000     0.755110000000     0.039290000000    -0.180142   
N248     N      0.505150000000     0.755120000000     0.973570000000    -0.180129   
N249     N      0.505150000000     0.005110000000     0.223830000000    -0.184774   
N250     N      0.505130000000     0.005120000000     0.289020000000    -0.183641   
N251     N      0.505160000000     0.505080000000     0.039280000000    -0.180104   
N252     N      0.505160000000     0.505100000000     0.973570000000    -0.180085   
N253     N      0.505040000000     0.912860000000     0.131850000000    -0.179696   
N254     N      0.505220000000     0.847320000000     0.131860000000    -0.180194   
N255     N      0.505280000000     0.597320000000     0.131830000000    -0.180211   
N256     N      0.505100000000     0.662860000000     0.131830000000    -0.180243   
Ni1      Ni     0.477230000000     0.505390000000     0.131770000000     1.00391    
Ni2      Ni     0.033080000000     0.504780000000     0.131770000000     0.995997   
Ni3      Ni     0.477240000000     0.255370000000     0.131770000000     1.00395    
Ni4      Ni     0.033080000000     0.254810000000     0.131770000000     0.996178   
Ni5      Ni     0.227170000000     0.005410000000     0.131760000000     0.997964   
Ni6      Ni     0.283020000000     0.504810000000     0.131760000000     1.00415    
Ni7      Ni     0.227170000000     0.255410000000     0.131760000000     1.00431    
Ni8      Ni     0.283030000000     0.254810000000     0.131750000000     1.00407    
Ni9      Ni     0.033050000000     0.505790000000     0.881080000000     0.995654   
Ni10     Ni     0.477230000000     0.004440000000     0.881090000000     0.997753   
Ni11     Ni     0.477230000000     0.255780000000     0.881090000000     1.0039     
Ni12     Ni     0.033050000000     0.254460000000     0.881090000000     0.995731   
Ni13     Ni     0.227150000000     0.504840000000     0.881070000000     1.0039     
Ni14     Ni     0.283000000000     0.505440000000     0.881070000000     1.00413    
Ni15     Ni     0.283000000000     0.255440000000     0.881080000000     1.00426    
Ni16     Ni     0.227150000000     0.254850000000     0.881070000000     1.00411    
Ni17     Ni     0.005400000000     0.477210000000     0.381080000000     0.997763   
Ni18     Ni     0.004810000000     0.033060000000     0.381070000000     0.989989   
Ni19     Ni     0.004880000000     0.282980000000     0.381070000000     0.99803    
Ni20     Ni     0.005430000000     0.227130000000     0.381070000000     0.997989   
Ni21     Ni     0.255400000000     0.477210000000     0.381070000000     1.00388    
Ni22     Ni     0.254810000000     0.033060000000     0.381070000000     0.996234   
Ni23     Ni     0.255460000000     0.227130000000     0.381060000000     1.00419    
Ni24     Ni     0.254850000000     0.282980000000     0.381070000000     1.00414    
Ni25     Ni     0.004780000000     0.477230000000     0.631760000000     0.997624   
Ni26     Ni     0.005370000000     0.033080000000     0.631760000000     0.990086   
Ni27     Ni     0.004470000000     0.282980000000     0.631740000000     0.997591   
Ni28     Ni     0.505780000000     0.227160000000     0.631750000000     1.00377    
Ni29     Ni     0.255370000000     0.033080000000     0.631750000000     0.996165   
Ni30     Ni     0.254770000000     0.477230000000     0.631760000000     1.00414    
Ni31     Ni     0.255800000000     0.282980000000     0.631740000000     1.00383    
Ni32     Ni     0.254450000000     0.227160000000     0.631750000000     1.00368    
Ni33     Ni     0.477230000000     0.005390000000     0.131770000000     0.998044   
Ni34     Ni     0.033080000000     0.004780000000     0.131770000000     0.989821   
Ni35     Ni     0.477240000000     0.755370000000     0.131770000000     1.00398    
Ni36     Ni     0.033080000000     0.754810000000     0.131770000000     0.996212   
Ni37     Ni     0.227170000000     0.505410000000     0.131760000000     1.00407    
Ni38     Ni     0.283020000000     0.004810000000     0.131760000000     0.997935   
Ni39     Ni     0.227170000000     0.755410000000     0.131760000000     1.00431    
Ni40     Ni     0.283030000000     0.754810000000     0.131750000000     1.0043     
Ni41     Ni     0.033050000000     0.005790000000     0.881080000000     0.989586   
Ni42     Ni     0.477230000000     0.504440000000     0.881090000000     1.00398    
Ni43     Ni     0.477230000000     0.755780000000     0.881090000000     1.00393    
Ni44     Ni     0.033050000000     0.754460000000     0.881090000000     0.995763   
Ni45     Ni     0.227150000000     0.004840000000     0.881070000000     0.997696   
Ni46     Ni     0.283000000000     0.005440000000     0.881070000000     0.998025   
Ni47     Ni     0.283000000000     0.755440000000     0.881080000000     1.00433    
Ni48     Ni     0.227150000000     0.754850000000     0.881070000000     1.00394    
Ni49     Ni     0.005400000000     0.977210000000     0.381080000000     1.00163    
Ni50     Ni     0.004810000000     0.533060000000     0.381070000000     0.997868   
Ni51     Ni     0.004880000000     0.782980000000     0.381070000000     0.998102   
Ni52     Ni     0.005430000000     0.727130000000     0.381070000000     0.997903   
Ni53     Ni     0.255400000000     0.977210000000     0.381070000000     1.00782    
Ni54     Ni     0.254810000000     0.533060000000     0.381070000000     1.00417    
Ni55     Ni     0.255460000000     0.727130000000     0.381060000000     1.0041     
Ni56     Ni     0.254850000000     0.782980000000     0.381070000000     1.0042     
Ni57     Ni     0.004780000000     0.977230000000     0.631760000000     1.00153    
Ni58     Ni     0.005370000000     0.533080000000     0.631760000000     0.998006   
Ni59     Ni     0.004470000000     0.782980000000     0.631740000000     0.997663   
Ni60     Ni     0.505780000000     0.727160000000     0.631750000000     1.00369    
Ni61     Ni     0.255370000000     0.533080000000     0.631750000000     1.00408    
Ni62     Ni     0.254770000000     0.977230000000     0.631760000000     1.00799    
Ni63     Ni     0.255800000000     0.782980000000     0.631740000000     1.00389    
Ni64     Ni     0.254450000000     0.727160000000     0.631750000000     1.0036     
Ni65     Ni     0.977230000000     0.505390000000     0.131770000000     1.00776    
Ni66     Ni     0.533080000000     0.504780000000     0.131770000000     1.0039     
Ni67     Ni     0.977240000000     0.255370000000     0.131770000000     1.00785    
Ni68     Ni     0.533080000000     0.254810000000     0.131770000000     1.00406    
Ni69     Ni     0.727170000000     0.005410000000     0.131760000000     0.997832   
Ni70     Ni     0.783020000000     0.504810000000     0.131760000000     1.00419    
Ni71     Ni     0.727170000000     0.255410000000     0.131760000000     1.00423    
Ni72     Ni     0.783030000000     0.254810000000     0.131750000000     1.00414    
Ni73     Ni     0.533050000000     0.505790000000     0.881080000000     1.00355    
Ni74     Ni     0.977230000000     0.004440000000     0.881090000000     1.00162    
Ni75     Ni     0.977230000000     0.255780000000     0.881090000000     1.00776    
Ni76     Ni     0.533050000000     0.254460000000     0.881090000000     1.00364    
Ni77     Ni     0.727150000000     0.504840000000     0.881070000000     1.00382    
Ni78     Ni     0.783000000000     0.505440000000     0.881070000000     1.0042     
Ni79     Ni     0.783000000000     0.255440000000     0.881080000000     1.00429    
Ni80     Ni     0.727150000000     0.254850000000     0.881070000000     1.00407    
Ni81     Ni     0.505400000000     0.477210000000     0.381080000000     1.00387    
Ni82     Ni     0.504810000000     0.033060000000     0.381070000000     0.996171   
Ni83     Ni     0.504880000000     0.282980000000     0.381070000000     1.00425    
Ni84     Ni     0.505440000000     0.227130000000     0.381070000000     1.00412    
Ni85     Ni     0.755400000000     0.477210000000     0.381070000000     1.00415    
Ni86     Ni     0.754810000000     0.033060000000     0.381070000000     0.996033   
Ni87     Ni     0.755460000000     0.227130000000     0.381060000000     1.00422    
Ni88     Ni     0.754850000000     0.282980000000     0.381070000000     1.00416    
Ni89     Ni     0.504780000000     0.477230000000     0.631760000000     1.00396    
Ni90     Ni     0.505370000000     0.033080000000     0.631760000000     0.995912   
Ni91     Ni     0.504470000000     0.282980000000     0.631740000000     1.00406    
Ni92     Ni     0.005780000000     0.227160000000     0.631750000000     0.997588   
Ni93     Ni     0.755370000000     0.033080000000     0.631750000000     0.996195   
Ni94     Ni     0.754770000000     0.477230000000     0.631760000000     1.00416    
Ni95     Ni     0.755800000000     0.282980000000     0.631740000000     1.00365    
Ni96     Ni     0.754450000000     0.227160000000     0.631750000000     1.00375    
Ni97     Ni     0.977230000000     0.005390000000     0.131770000000     1.00165    
Ni98     Ni     0.533080000000     0.004780000000     0.131770000000     0.99768    
Ni99     Ni     0.977240000000     0.755370000000     0.131770000000     1.00787    
Ni100    Ni     0.533080000000     0.754810000000     0.131770000000     1.00408    
Ni101    Ni     0.727170000000     0.505410000000     0.131760000000     1.00394    
Ni102    Ni     0.783020000000     0.004810000000     0.131760000000     0.997982   
Ni103    Ni     0.727170000000     0.755410000000     0.131760000000     1.00422    
Ni104    Ni     0.783030000000     0.754810000000     0.131750000000     1.00437    
Ni105    Ni     0.533050000000     0.005790000000     0.881080000000     0.997458   
Ni106    Ni     0.977230000000     0.504440000000     0.881090000000     1.00783    
Ni107    Ni     0.977230000000     0.755780000000     0.881090000000     1.00778    
Ni108    Ni     0.533050000000     0.754460000000     0.881090000000     1.00366    
Ni109    Ni     0.727150000000     0.004840000000     0.881070000000     0.99761    
Ni110    Ni     0.783000000000     0.005440000000     0.881070000000     0.998097   
Ni111    Ni     0.783000000000     0.755440000000     0.881080000000     1.0044     
Ni112    Ni     0.727150000000     0.754850000000     0.881070000000     1.00386    
Ni113    Ni     0.505400000000     0.977210000000     0.381080000000     1.00773    
Ni114    Ni     0.504810000000     0.533060000000     0.381070000000     1.00409    
Ni115    Ni     0.504880000000     0.782980000000     0.381070000000     1.00431    
Ni116    Ni     0.505440000000     0.727130000000     0.381070000000     1.00403    
Ni117    Ni     0.755400000000     0.977210000000     0.381070000000     1.00808    
Ni118    Ni     0.754810000000     0.533060000000     0.381070000000     1.00395    
Ni119    Ni     0.755460000000     0.727130000000     0.381060000000     1.00414    
Ni120    Ni     0.754850000000     0.782980000000     0.381070000000     1.00423    
Ni121    Ni     0.504780000000     0.977230000000     0.631760000000     1.00785    
Ni122    Ni     0.505370000000     0.533080000000     0.631760000000     1.00387    
Ni123    Ni     0.504470000000     0.782980000000     0.631740000000     1.00413    
Ni124    Ni     0.005780000000     0.727160000000     0.631750000000     0.997503   
Ni125    Ni     0.755370000000     0.533080000000     0.631750000000     1.00411    
Ni126    Ni     0.754770000000     0.977230000000     0.631760000000     1.00802    
Ni127    Ni     0.755800000000     0.782980000000     0.631740000000     1.00372    
Ni128    Ni     0.754450000000     0.727160000000     0.631750000000     1.00367    
O1       O      0.479090000000     0.007150000000     0.176820000000    -0.44768    
O2       O      0.479080000000     0.504280000000     0.086700000000    -0.447557   
O3       O      0.479010000000     0.460290000000     0.132850000000    -0.446529   
O4       O      0.479160000000     0.050170000000     0.130680000000    -0.448007   
O5       O      0.031310000000     0.049890000000     0.132850000000    -0.443416   
O6       O      0.031160000000     0.460000000000     0.130700000000    -0.447007   
O7       O      0.031250000000     0.005880000000     0.086700000000    -0.445593   
O8       O      0.031220000000     0.503040000000     0.176820000000    -0.444932   
O9       O      0.479090000000     0.257160000000     0.176820000000    -0.446942   
O10      O      0.479080000000     0.254200000000     0.086710000000    -0.447534   
O11      O      0.479050000000     0.210270000000     0.132890000000    -0.446589   
O12      O      0.479130000000     0.300160000000     0.130650000000    -0.448935   
O13      O      0.031270000000     0.299900000000     0.132910000000    -0.444645   
O14      O      0.031190000000     0.210020000000     0.130630000000    -0.446916   
O15      O      0.031240000000     0.256000000000     0.086710000000    -0.445515   
O16      O      0.031230000000     0.253000000000     0.176820000000    -0.444963   
O17      O      0.229080000000     0.050190000000     0.130680000000    -0.447931   
O18      O      0.228970000000     0.460310000000     0.132840000000    -0.446549   
O19      O      0.229030000000     0.007160000000     0.176810000000    -0.447542   
O20      O      0.229010000000     0.504310000000     0.086690000000    -0.447585   
O21      O      0.281180000000     0.005910000000     0.086690000000    -0.447631   
O22      O      0.281170000000     0.503070000000     0.176810000000    -0.447027   
O23      O      0.281120000000     0.460030000000     0.130680000000    -0.44902    
O24      O      0.281230000000     0.049910000000     0.132830000000    -0.445442   
O25      O      0.228970000000     0.210310000000     0.132830000000    -0.446582   
O26      O      0.229080000000     0.300190000000     0.130700000000    -0.449113   
O27      O      0.229010000000     0.254320000000     0.086700000000    -0.447652   
O28      O      0.229040000000     0.257150000000     0.176820000000    -0.447018   
O29      O      0.281180000000     0.253050000000     0.176810000000    -0.446914   
O30      O      0.281180000000     0.255920000000     0.086690000000    -0.447553   
O31      O      0.281230000000     0.299920000000     0.132840000000    -0.446487   
O32      O      0.281120000000     0.210030000000     0.130670000000    -0.449015   
O33      O      0.032100000000     0.460650000000     0.879790000000    -0.443646   
O34      O      0.030300000000     0.050510000000     0.882380000000    -0.446404   
O35      O      0.031240000000     0.504480000000     0.926140000000    -0.445356   
O36      O      0.031150000000     0.007690000000     0.836030000000    -0.445222   
O37      O      0.479100000000     0.502570000000     0.836050000000    -0.446963   
O38      O      0.479060000000     0.005740000000     0.926150000000    -0.447673   
O39      O      0.478180000000     0.049590000000     0.879810000000    -0.444636   
O40      O      0.479980000000     0.459730000000     0.882380000000    -0.4496     
O41      O      0.479980000000     0.300500000000     0.882430000000    -0.449565   
O42      O      0.478190000000     0.210640000000     0.879770000000    -0.445715   
O43      O      0.479060000000     0.254400000000     0.926150000000    -0.447397   
O44      O      0.479120000000     0.257700000000     0.836050000000    -0.447038   
O45      O      0.031160000000     0.252530000000     0.836040000000    -0.444886   
O46      O      0.031230000000     0.255840000000     0.926150000000    -0.445435   
O47      O      0.030300000000     0.209740000000     0.882430000000    -0.447388   
O48      O      0.032090000000     0.299600000000     0.879750000000    -0.443774   
O49      O      0.229000000000     0.503100000000     0.836020000000    -0.446961   
O50      O      0.229000000000     0.005930000000     0.926140000000    -0.447718   
O51      O      0.228940000000     0.049950000000     0.880000000000    -0.445417   
O52      O      0.229060000000     0.460060000000     0.882140000000    -0.448975   
O53      O      0.281210000000     0.460340000000     0.879980000000    -0.446569   
O54      O      0.281090000000     0.050220000000     0.882150000000    -0.447849   
O55      O      0.281170000000     0.504340000000     0.926130000000    -0.447501   
O56      O      0.281140000000     0.007200000000     0.836010000000    -0.44737    
O57      O      0.281150000000     0.257170000000     0.836020000000    -0.446975   
O58      O      0.281160000000     0.254350000000     0.926140000000    -0.447681   
O59      O      0.281210000000     0.210340000000     0.880010000000    -0.446412   
O60      O      0.281100000000     0.300220000000     0.882140000000    -0.449047   
O61      O      0.228950000000     0.299950000000     0.880000000000    -0.446433   
O62      O      0.229060000000     0.210070000000     0.882140000000    -0.449066   
O63      O      0.228990000000     0.255940000000     0.926140000000    -0.447502   
O64      O      0.229010000000     0.253110000000     0.836020000000    -0.447112   
O65      O      0.460300000000     0.479000000000     0.379990000000    -0.446374   
O66      O      0.050190000000     0.479120000000     0.382160000000    -0.447849   
O67      O      0.504300000000     0.479060000000     0.426140000000    -0.447683   
O68      O      0.007160000000     0.479060000000     0.336020000000    -0.44751    
O69      O      0.503070000000     0.031200000000     0.336020000000    -0.444999   
O70      O      0.005900000000     0.031230000000     0.426140000000    -0.445617   
O71      O      0.049910000000     0.031270000000     0.380000000000    -0.443545   
O72      O      0.460030000000     0.031150000000     0.382140000000    -0.446881   
O73      O      0.503080000000     0.281120000000     0.336020000000    -0.447162   
O74      O      0.006050000000     0.281130000000     0.426130000000    -0.447778   
O75      O      0.049970000000     0.281160000000     0.379950000000    -0.445655   
O76      O      0.460090000000     0.281090000000     0.382190000000    -0.448842   
O77      O      0.460340000000     0.228940000000     0.379930000000    -0.446344   
O78      O      0.050220000000     0.229020000000     0.382200000000    -0.447879   
O79      O      0.504250000000     0.228970000000     0.426130000000    -0.447595   
O80      O      0.007240000000     0.228990000000     0.336020000000    -0.447541   
O81      O      0.254310000000     0.479050000000     0.426140000000    -0.447407   
O82      O      0.257150000000     0.479060000000     0.336020000000    -0.446936   
O83      O      0.300190000000     0.479120000000     0.382150000000    -0.448864   
O84      O      0.210300000000     0.479000000000     0.379990000000    -0.446359   
O85      O      0.210030000000     0.031150000000     0.382140000000    -0.44689    
O86      O      0.299910000000     0.031270000000     0.379990000000    -0.444524   
O87      O      0.253060000000     0.031200000000     0.336010000000    -0.44485    
O88      O      0.255910000000     0.031220000000     0.426130000000    -0.445628   
O89      O      0.300240000000     0.229050000000     0.382130000000    -0.449012   
O90      O      0.210360000000     0.228910000000     0.379990000000    -0.44657    
O91      O      0.257210000000     0.228990000000     0.336010000000    -0.447037   
O92      O      0.254360000000     0.228970000000     0.426130000000    -0.447661   
O93      O      0.255960000000     0.281130000000     0.426130000000    -0.447743   
O94      O      0.253090000000     0.281130000000     0.336010000000    -0.4469     
O95      O      0.210070000000     0.281060000000     0.382150000000    -0.448895   
O96      O      0.299950000000     0.281200000000     0.379980000000    -0.446416   
O97      O      0.005860000000     0.479070000000     0.586690000000    -0.447652   
O98      O      0.503050000000     0.479080000000     0.676810000000    -0.446923   
O99      O      0.459990000000     0.479130000000     0.630700000000    -0.449006   
O100     O      0.049880000000     0.479030000000     0.632830000000    -0.445411   
O101     O      0.050150000000     0.031180000000     0.630690000000    -0.445925   
O102     O      0.460260000000     0.031280000000     0.632840000000    -0.444377   
O103     O      0.007110000000     0.031230000000     0.676810000000    -0.445239   
O104     O      0.504270000000     0.031240000000     0.586690000000    -0.445423   
O105     O      0.049600000000     0.282020000000     0.633070000000    -0.444882   
O106     O      0.459750000000     0.280230000000     0.630410000000    -0.449508   
O107     O      0.002540000000     0.281100000000     0.676790000000    -0.448245   
O108     O      0.505840000000     0.281150000000     0.586690000000    -0.447552   
O109     O      0.004410000000     0.228980000000     0.586690000000    -0.44777    
O110     O      0.507710000000     0.229060000000     0.676800000000    -0.446978   
O111     O      0.460650000000     0.228120000000     0.633080000000    -0.445824   
O112     O      0.050510000000     0.229910000000     0.630410000000    -0.448398   
O113     O      0.257120000000     0.031230000000     0.676810000000    -0.444835   
O114     O      0.254280000000     0.031240000000     0.586690000000    -0.445537   
O115     O      0.210270000000     0.031290000000     0.632830000000    -0.44459    
O116     O      0.300150000000     0.031170000000     0.630680000000    -0.44676    
O117     O      0.299870000000     0.479020000000     0.632840000000    -0.446437   
O118     O      0.209990000000     0.479140000000     0.630680000000    -0.449008   
O119     O      0.255880000000     0.479070000000     0.586690000000    -0.447576   
O120     O      0.253020000000     0.479090000000     0.676810000000    -0.446999   
O121     O      0.257680000000     0.281110000000     0.676790000000    -0.446851   
O122     O      0.254510000000     0.281150000000     0.586680000000    -0.447449   
O123     O      0.210650000000     0.282030000000     0.633020000000    -0.445621   
O124     O      0.300510000000     0.280230000000     0.630450000000    -0.44957    
O125     O      0.299600000000     0.228110000000     0.633050000000    -0.445573   
O126     O      0.209740000000     0.229910000000     0.630450000000    -0.449615   
O127     O      0.255760000000     0.228970000000     0.586690000000    -0.447402   
O128     O      0.252560000000     0.229060000000     0.676800000000    -0.446821   
O129     O      0.479080000000     0.507150000000     0.176820000000    -0.44699    
O130     O      0.479080000000     0.004280000000     0.086700000000    -0.447853   
O131     O      0.479010000000     0.960290000000     0.132850000000    -0.441269   
O132     O      0.479160000000     0.550180000000     0.130680000000    -0.44898    
O133     O      0.031310000000     0.549890000000     0.132850000000    -0.444411   
O134     O      0.031160000000     0.960000000000     0.130700000000    -0.441737   
O135     O      0.031250000000     0.505880000000     0.086700000000    -0.445419   
O136     O      0.031220000000     0.003040000000     0.176820000000    -0.446213   
O137     O      0.479090000000     0.757160000000     0.176820000000    -0.446927   
O138     O      0.479080000000     0.754200000000     0.086710000000    -0.447493   
O139     O      0.479050000000     0.710270000000     0.132890000000    -0.446607   
O140     O      0.479130000000     0.800160000000     0.130650000000    -0.448838   
O141     O      0.031270000000     0.799900000000     0.132910000000    -0.444554   
O142     O      0.031190000000     0.710020000000     0.130630000000    -0.446934   
O143     O      0.031240000000     0.756000000000     0.086710000000    -0.445469   
O144     O      0.031230000000     0.753000000000     0.176820000000    -0.444944   
O145     O      0.229080000000     0.550190000000     0.130680000000    -0.449061   
O146     O      0.228970000000     0.960310000000     0.132840000000    -0.44125    
O147     O      0.229030000000     0.507160000000     0.176810000000    -0.44705    
O148     O      0.229010000000     0.004310000000     0.086690000000    -0.447848   
O149     O      0.281180000000     0.505910000000     0.086690000000    -0.447463   
O150     O      0.281170000000     0.003070000000     0.176810000000    -0.448307   
O151     O      0.281120000000     0.960030000000     0.130680000000    -0.443733   
O152     O      0.281230000000     0.549910000000     0.132830000000    -0.446529   
O153     O      0.228970000000     0.710310000000     0.132830000000    -0.4466     
O154     O      0.229080000000     0.800190000000     0.130700000000    -0.448982   
O155     O      0.229010000000     0.754320000000     0.086700000000    -0.447609   
O156     O      0.229040000000     0.757150000000     0.176820000000    -0.446999   
O157     O      0.281180000000     0.753050000000     0.176810000000    -0.446917   
O158     O      0.281180000000     0.755920000000     0.086690000000    -0.447528   
O159     O      0.281230000000     0.799910000000     0.132840000000    -0.446457   
O160     O      0.281120000000     0.710030000000     0.130670000000    -0.449067   
O161     O      0.032100000000     0.960650000000     0.879780000000    -0.438349   
O162     O      0.030300000000     0.550510000000     0.882380000000    -0.447448   
O163     O      0.031240000000     0.004480000000     0.926140000000    -0.445641   
O164     O      0.031150000000     0.507690000000     0.836030000000    -0.444754   
O165     O      0.479100000000     0.002570000000     0.836050000000    -0.448256   
O166     O      0.479060000000     0.505740000000     0.926150000000    -0.447507   
O167     O      0.478180000000     0.549590000000     0.879810000000    -0.445628   
O168     O      0.479980000000     0.959730000000     0.882380000000    -0.444311   
O169     O      0.479980000000     0.800500000000     0.882430000000    -0.44947    
O170     O      0.478190000000     0.710640000000     0.879770000000    -0.445732   
O171     O      0.479060000000     0.754400000000     0.926150000000    -0.447356   
O172     O      0.479120000000     0.757700000000     0.836050000000    -0.447024   
O173     O      0.031160000000     0.752530000000     0.836040000000    -0.444866   
O174     O      0.031230000000     0.755840000000     0.926150000000    -0.44539    
O175     O      0.030300000000     0.709740000000     0.882430000000    -0.447404   
O176     O      0.032090000000     0.799600000000     0.879750000000    -0.443679   
O177     O      0.229000000000     0.003100000000     0.836020000000    -0.448237   
O178     O      0.229000000000     0.505930000000     0.926140000000    -0.44755    
O179     O      0.228940000000     0.549950000000     0.880000000000    -0.446419   
O180     O      0.229060000000     0.960060000000     0.882140000000    -0.443691   
O181     O      0.281210000000     0.960340000000     0.879980000000    -0.441268   
O182     O      0.281090000000     0.550220000000     0.882150000000    -0.448895   
O183     O      0.281170000000     0.004340000000     0.926130000000    -0.447763   
O184     O      0.281140000000     0.507200000000     0.836010000000    -0.446886   
O185     O      0.281150000000     0.757170000000     0.836020000000    -0.446963   
O186     O      0.281160000000     0.754350000000     0.926140000000    -0.447644   
O187     O      0.281210000000     0.710340000000     0.880010000000    -0.446463   
O188     O      0.281100000000     0.800220000000     0.882140000000    -0.44895    
O189     O      0.228950000000     0.799950000000     0.880000000000    -0.446306   
O190     O      0.229060000000     0.710060000000     0.882140000000    -0.449017   
O191     O      0.228990000000     0.755940000000     0.926140000000    -0.447432   
O192     O      0.229010000000     0.753110000000     0.836020000000    -0.447069   
O193     O      0.460300000000     0.979000000000     0.379990000000    -0.440665   
O194     O      0.050190000000     0.979120000000     0.382160000000    -0.442161   
O195     O      0.504300000000     0.979060000000     0.426140000000    -0.441938   
O196     O      0.007160000000     0.979060000000     0.336020000000    -0.441612   
O197     O      0.503070000000     0.531200000000     0.336020000000    -0.446968   
O198     O      0.005900000000     0.531230000000     0.426140000000    -0.447661   
O199     O      0.049910000000     0.531270000000     0.380000000000    -0.445535   
O200     O      0.460030000000     0.531150000000     0.382140000000    -0.449078   
O201     O      0.503080000000     0.781120000000     0.336020000000    -0.447116   
O202     O      0.006050000000     0.781130000000     0.426130000000    -0.447758   
O203     O      0.049970000000     0.781160000000     0.379950000000    -0.445629   
O204     O      0.460090000000     0.781090000000     0.382190000000    -0.448814   
O205     O      0.460340000000     0.728940000000     0.379930000000    -0.446347   
O206     O      0.050220000000     0.729020000000     0.382200000000    -0.447883   
O207     O      0.504250000000     0.728970000000     0.426130000000    -0.447599   
O208     O      0.007240000000     0.728990000000     0.336020000000    -0.447541   
O209     O      0.254310000000     0.979060000000     0.426140000000    -0.441845   
O210     O      0.257150000000     0.979060000000     0.336020000000    -0.441147   
O211     O      0.300190000000     0.979120000000     0.382150000000    -0.443181   
O212     O      0.210300000000     0.979000000000     0.379990000000    -0.440661   
O213     O      0.210030000000     0.531150000000     0.382140000000    -0.44909    
O214     O      0.299910000000     0.531270000000     0.379990000000    -0.446523   
O215     O      0.253060000000     0.531200000000     0.336010000000    -0.446926   
O216     O      0.255910000000     0.531220000000     0.426130000000    -0.447619   
O217     O      0.300240000000     0.729050000000     0.382130000000    -0.449013   
O218     O      0.210360000000     0.728910000000     0.379990000000    -0.446572   
O219     O      0.257210000000     0.728990000000     0.336010000000    -0.447037   
O220     O      0.254360000000     0.728970000000     0.426130000000    -0.447665   
O221     O      0.255960000000     0.781130000000     0.426130000000    -0.447723   
O222     O      0.253090000000     0.781130000000     0.336010000000    -0.446854   
O223     O      0.210070000000     0.781060000000     0.382150000000    -0.448867   
O224     O      0.299950000000     0.781200000000     0.379980000000    -0.446388   
O225     O      0.005860000000     0.979070000000     0.586690000000    -0.442025   
O226     O      0.503050000000     0.979080000000     0.676810000000    -0.441121   
O227     O      0.459990000000     0.979130000000     0.630700000000    -0.443309   
O228     O      0.049880000000     0.979030000000     0.632830000000    -0.439619   
O229     O      0.050150000000     0.531180000000     0.630690000000    -0.448019   
O230     O      0.460260000000     0.531280000000     0.632840000000    -0.446382   
O231     O      0.007110000000     0.531230000000     0.676810000000    -0.447307   
O232     O      0.504270000000     0.531240000000     0.586690000000    -0.447584   
O233     O      0.049600000000     0.782020000000     0.633070000000    -0.444852   
O234     O      0.459750000000     0.780230000000     0.630410000000    -0.449485   
O235     O      0.002540000000     0.781100000000     0.676790000000    -0.448198   
O236     O      0.505840000000     0.781150000000     0.586690000000    -0.447532   
O237     O      0.004410000000     0.728980000000     0.586690000000    -0.447774   
O238     O      0.507710000000     0.729060000000     0.676800000000    -0.446978   
O239     O      0.460650000000     0.728120000000     0.633080000000    -0.445825   
O240     O      0.050510000000     0.729910000000     0.630410000000    -0.448403   
O241     O      0.257120000000     0.531230000000     0.676810000000    -0.446899   
O242     O      0.254280000000     0.531240000000     0.586690000000    -0.447589   
O243     O      0.210270000000     0.531290000000     0.632830000000    -0.446591   
O244     O      0.300150000000     0.531170000000     0.630680000000    -0.448856   
O245     O      0.299870000000     0.979020000000     0.632840000000    -0.44063    
O246     O      0.209990000000     0.979140000000     0.630680000000    -0.443312   
O247     O      0.255880000000     0.979070000000     0.586690000000    -0.441835   
O248     O      0.253020000000     0.979090000000     0.676810000000    -0.441191   
O249     O      0.257680000000     0.781110000000     0.676790000000    -0.446804   
O250     O      0.254510000000     0.781150000000     0.586680000000    -0.447429   
O251     O      0.210650000000     0.782030000000     0.633020000000    -0.445591   
O252     O      0.300510000000     0.780230000000     0.630450000000    -0.449544   
O253     O      0.299600000000     0.728110000000     0.633050000000    -0.445576   
O254     O      0.209740000000     0.729910000000     0.630450000000    -0.449614   
O255     O      0.255760000000     0.728970000000     0.586690000000    -0.447406   
O256     O      0.252560000000     0.729060000000     0.676800000000    -0.446821   
O257     O      0.979080000000     0.007150000000     0.176820000000    -0.441685   
O258     O      0.979080000000     0.504280000000     0.086700000000    -0.441826   
O259     O      0.979010000000     0.460290000000     0.132850000000    -0.440728   
O260     O      0.979160000000     0.050180000000     0.130680000000    -0.442252   
O261     O      0.531310000000     0.049890000000     0.132850000000    -0.445377   
O262     O      0.531160000000     0.460000000000     0.130700000000    -0.449103   
O263     O      0.531250000000     0.005880000000     0.086700000000    -0.44764    
O264     O      0.531220000000     0.503040000000     0.176820000000    -0.446999   
O265     O      0.979100000000     0.257160000000     0.176820000000    -0.441313   
O266     O      0.979080000000     0.254200000000     0.086710000000    -0.441819   
O267     O      0.979050000000     0.210270000000     0.132890000000    -0.440797   
O268     O      0.979130000000     0.300160000000     0.130650000000    -0.443249   
O269     O      0.531270000000     0.299900000000     0.132910000000    -0.44664    
O270     O      0.531190000000     0.210020000000     0.130630000000    -0.449009   
O271     O      0.531240000000     0.256000000000     0.086710000000    -0.447556   
O272     O      0.531230000000     0.253000000000     0.176820000000    -0.446963   
O273     O      0.729080000000     0.050190000000     0.130680000000    -0.447922   
O274     O      0.728960000000     0.460310000000     0.132840000000    -0.446378   
O275     O      0.729030000000     0.007160000000     0.176810000000    -0.447535   
O276     O      0.729010000000     0.504310000000     0.086690000000    -0.447581   
O277     O      0.781180000000     0.005910000000     0.086690000000    -0.447608   
O278     O      0.781170000000     0.503070000000     0.176810000000    -0.446977   
O279     O      0.781120000000     0.460030000000     0.130680000000    -0.448927   
O280     O      0.781230000000     0.049910000000     0.132830000000    -0.445407   
O281     O      0.728970000000     0.210310000000     0.132830000000    -0.446585   
O282     O      0.729080000000     0.300190000000     0.130700000000    -0.449113   
O283     O      0.729010000000     0.254320000000     0.086700000000    -0.447656   
O284     O      0.729040000000     0.257150000000     0.176820000000    -0.447016   
O285     O      0.781180000000     0.253050000000     0.176810000000    -0.446869   
O286     O      0.781180000000     0.255920000000     0.086690000000    -0.447534   
O287     O      0.781230000000     0.299920000000     0.132840000000    -0.44646    
O288     O      0.781120000000     0.210030000000     0.130670000000    -0.448988   
O289     O      0.532100000000     0.460650000000     0.879780000000    -0.445624   
O290     O      0.530300000000     0.050510000000     0.882380000000    -0.448497   
O291     O      0.531240000000     0.504480000000     0.926140000000    -0.447416   
O292     O      0.531150000000     0.007690000000     0.836030000000    -0.447281   
O293     O      0.979100000000     0.502570000000     0.836050000000    -0.441162   
O294     O      0.979060000000     0.005740000000     0.926150000000    -0.441958   
O295     O      0.978180000000     0.049590000000     0.879810000000    -0.438845   
O296     O      0.979980000000     0.459730000000     0.882380000000    -0.443916   
O297     O      0.979980000000     0.300500000000     0.882430000000    -0.44388    
O298     O      0.978190000000     0.210640000000     0.879770000000    -0.439912   
O299     O      0.979060000000     0.254400000000     0.926150000000    -0.441673   
O300     O      0.979120000000     0.257700000000     0.836050000000    -0.441235   
O301     O      0.531160000000     0.252530000000     0.836040000000    -0.44695    
O302     O      0.531230000000     0.255840000000     0.926150000000    -0.447482   
O303     O      0.530300000000     0.209740000000     0.882430000000    -0.44948    
O304     O      0.532090000000     0.299600000000     0.879750000000    -0.445767   
O305     O      0.729000000000     0.503100000000     0.836020000000    -0.44696    
O306     O      0.729000000000     0.005930000000     0.926140000000    -0.447722   
O307     O      0.728940000000     0.049950000000     0.880000000000    -0.445423   
O308     O      0.729060000000     0.460060000000     0.882140000000    -0.448973   
O309     O      0.781210000000     0.460340000000     0.879980000000    -0.446545   
O310     O      0.781090000000     0.050220000000     0.882150000000    -0.447817   
O311     O      0.781170000000     0.504340000000     0.926130000000    -0.447481   
O312     O      0.781140000000     0.007200000000     0.836010000000    -0.447323   
O313     O      0.781150000000     0.257170000000     0.836020000000    -0.446924   
O314     O      0.781160000000     0.254350000000     0.926140000000    -0.447658   
O315     O      0.781210000000     0.210340000000     0.880010000000    -0.446272   
O316     O      0.781100000000     0.300220000000     0.882140000000    -0.449018   
O317     O      0.728950000000     0.299950000000     0.880000000000    -0.446441   
O318     O      0.729060000000     0.210070000000     0.882140000000    -0.449177   
O319     O      0.728990000000     0.255940000000     0.926140000000    -0.447509   
O320     O      0.729010000000     0.253110000000     0.836020000000    -0.447115   
O321     O      0.960300000000     0.479000000000     0.379990000000    -0.441054   
O322     O      0.550190000000     0.479120000000     0.382160000000    -0.448882   
O323     O      0.004300000000     0.479060000000     0.426140000000    -0.447949   
O324     O      0.507170000000     0.479060000000     0.336020000000    -0.447002   
O325     O      0.003070000000     0.031200000000     0.336020000000    -0.44629    
O326     O      0.505900000000     0.031230000000     0.426140000000    -0.445444   
O327     O      0.549910000000     0.031270000000     0.380000000000    -0.444538   
O328     O      0.960030000000     0.031150000000     0.382140000000    -0.441599   
O329     O      0.003080000000     0.281120000000     0.336020000000    -0.448443   
O330     O      0.506050000000     0.281130000000     0.426130000000    -0.447607   
O331     O      0.549970000000     0.281160000000     0.379950000000    -0.446675   
O332     O      0.960090000000     0.281090000000     0.382190000000    -0.443565   
O333     O      0.960340000000     0.228940000000     0.379930000000    -0.441155   
O334     O      0.550220000000     0.229020000000     0.382200000000    -0.44905    
O335     O      0.004250000000     0.228970000000     0.426130000000    -0.447858   
O336     O      0.507240000000     0.228990000000     0.336020000000    -0.447062   
O337     O      0.754310000000     0.479050000000     0.426140000000    -0.447393   
O338     O      0.757150000000     0.479060000000     0.336020000000    -0.446947   
O339     O      0.800180000000     0.479120000000     0.382150000000    -0.448833   
O340     O      0.710300000000     0.479000000000     0.379990000000    -0.446444   
O341     O      0.710020000000     0.031150000000     0.382140000000    -0.446845   
O342     O      0.799910000000     0.031270000000     0.379990000000    -0.444363   
O343     O      0.753060000000     0.031200000000     0.336010000000    -0.444815   
O344     O      0.755910000000     0.031220000000     0.426130000000    -0.445555   
O345     O      0.800240000000     0.229050000000     0.382130000000    -0.448918   
O346     O      0.710360000000     0.228910000000     0.379990000000    -0.446583   
O347     O      0.757210000000     0.228990000000     0.336010000000    -0.447028   
O348     O      0.754360000000     0.228970000000     0.426130000000    -0.447621   
O349     O      0.755960000000     0.281130000000     0.426130000000    -0.447695   
O350     O      0.753090000000     0.281130000000     0.336010000000    -0.446874   
O351     O      0.710070000000     0.281060000000     0.382150000000    -0.448908   
O352     O      0.799950000000     0.281200000000     0.379980000000    -0.446328   
O353     O      0.505860000000     0.479070000000     0.586690000000    -0.447485   
O354     O      0.003050000000     0.479080000000     0.676810000000    -0.448234   
O355     O      0.959990000000     0.479130000000     0.630700000000    -0.443686   
O356     O      0.549880000000     0.479030000000     0.632830000000    -0.446518   
O357     O      0.550150000000     0.031180000000     0.630690000000    -0.447052   
O358     O      0.960270000000     0.031280000000     0.632840000000    -0.439128   
O359     O      0.507110000000     0.031230000000     0.676810000000    -0.444755   
O360     O      0.004270000000     0.031240000000     0.586690000000    -0.445713   
O361     O      0.549600000000     0.282020000000     0.633070000000    -0.445868   
O362     O      0.959740000000     0.280230000000     0.630410000000    -0.44416    
O363     O      0.502540000000     0.281100000000     0.676790000000    -0.446931   
O364     O      0.005840000000     0.281150000000     0.586690000000    -0.447704   
O365     O      0.504400000000     0.228980000000     0.586690000000    -0.447515   
O366     O      0.007710000000     0.229060000000     0.676800000000    -0.447397   
O367     O      0.960650000000     0.228120000000     0.633080000000    -0.440508   
O368     O      0.550500000000     0.229910000000     0.630410000000    -0.449542   
O369     O      0.757120000000     0.031230000000     0.676810000000    -0.444812   
O370     O      0.754280000000     0.031240000000     0.586690000000    -0.445497   
O371     O      0.710270000000     0.031290000000     0.632830000000    -0.444615   
O372     O      0.800150000000     0.031170000000     0.630680000000    -0.446656   
O373     O      0.799870000000     0.479020000000     0.632840000000    -0.446347   
O374     O      0.709990000000     0.479140000000     0.630680000000    -0.449023   
O375     O      0.755880000000     0.479070000000     0.586690000000    -0.447529   
O376     O      0.753020000000     0.479090000000     0.676810000000    -0.44698    
O377     O      0.757680000000     0.281110000000     0.676790000000    -0.446813   
O378     O      0.754510000000     0.281150000000     0.586680000000    -0.447386   
O379     O      0.710650000000     0.282030000000     0.633020000000    -0.445599   
O380     O      0.800520000000     0.280230000000     0.630450000000    -0.449412   
O381     O      0.799600000000     0.228110000000     0.633050000000    -0.445504   
O382     O      0.709740000000     0.229910000000     0.630450000000    -0.449636   
O383     O      0.755760000000     0.228970000000     0.586690000000    -0.447358   
O384     O      0.752560000000     0.229060000000     0.676800000000    -0.446803   
O385     O      0.979080000000     0.507150000000     0.176820000000    -0.441183   
O386     O      0.979080000000     0.004280000000     0.086700000000    -0.442104   
O387     O      0.979010000000     0.960290000000     0.132850000000    -0.435465   
O388     O      0.979160000000     0.550180000000     0.130680000000    -0.443286   
O389     O      0.531310000000     0.549890000000     0.132850000000    -0.446409   
O390     O      0.531160000000     0.960000000000     0.130700000000    -0.443818   
O391     O      0.531250000000     0.505880000000     0.086700000000    -0.447468   
O392     O      0.531220000000     0.003040000000     0.176820000000    -0.448343   
O393     O      0.979100000000     0.757160000000     0.176820000000    -0.441302   
O394     O      0.979080000000     0.754200000000     0.086710000000    -0.441782   
O395     O      0.979050000000     0.710270000000     0.132890000000    -0.440815   
O396     O      0.979130000000     0.800160000000     0.130650000000    -0.443159   
O397     O      0.531270000000     0.799900000000     0.132910000000    -0.446547   
O398     O      0.531190000000     0.710020000000     0.130630000000    -0.449025   
O399     O      0.531240000000     0.756000000000     0.086710000000    -0.447509   
O400     O      0.531230000000     0.753000000000     0.176820000000    -0.446944   
O401     O      0.729080000000     0.550190000000     0.130680000000    -0.449052   
O402     O      0.728960000000     0.960310000000     0.132840000000    -0.441081   
O403     O      0.729030000000     0.507160000000     0.176810000000    -0.447043   
O404     O      0.729010000000     0.004310000000     0.086690000000    -0.447845   
O405     O      0.781180000000     0.505910000000     0.086690000000    -0.44744    
O406     O      0.781170000000     0.003070000000     0.176810000000    -0.448256   
O407     O      0.781120000000     0.960030000000     0.130680000000    -0.443646   
O408     O      0.781230000000     0.549910000000     0.132830000000    -0.446495   
O409     O      0.728970000000     0.710310000000     0.132830000000    -0.446603   
O410     O      0.729080000000     0.800190000000     0.130700000000    -0.448983   
O411     O      0.729010000000     0.754320000000     0.086700000000    -0.447613   
O412     O      0.729040000000     0.757150000000     0.176820000000    -0.446998   
O413     O      0.781180000000     0.753050000000     0.176810000000    -0.446872   
O414     O      0.781180000000     0.755920000000     0.086690000000    -0.447509   
O415     O      0.781230000000     0.799910000000     0.132840000000    -0.44643    
O416     O      0.781120000000     0.710030000000     0.130670000000    -0.44904    
O417     O      0.532100000000     0.960650000000     0.879780000000    -0.440322   
O418     O      0.530300000000     0.550510000000     0.882380000000    -0.449548   
O419     O      0.531240000000     0.004480000000     0.926140000000    -0.447684   
O420     O      0.531150000000     0.507690000000     0.836030000000    -0.446805   
O421     O      0.979100000000     0.002570000000     0.836050000000    -0.442462   
O422     O      0.979060000000     0.505740000000     0.926150000000    -0.441776   
O423     O      0.978180000000     0.549590000000     0.879810000000    -0.439825   
O424     O      0.979980000000     0.959730000000     0.882380000000    -0.438662   
O425     O      0.979980000000     0.800500000000     0.882430000000    -0.443792   
O426     O      0.978190000000     0.710640000000     0.879770000000    -0.439929   
O427     O      0.979060000000     0.754400000000     0.926150000000    -0.441637   
O428     O      0.979120000000     0.757700000000     0.836050000000    -0.441224   
O429     O      0.531160000000     0.752530000000     0.836040000000    -0.44693    
O430     O      0.531230000000     0.755840000000     0.926150000000    -0.447435   
O431     O      0.530300000000     0.709740000000     0.882430000000    -0.449496   
O432     O      0.532090000000     0.799600000000     0.879750000000    -0.445672   
O433     O      0.729000000000     0.003100000000     0.836020000000    -0.448237   
O434     O      0.729000000000     0.505930000000     0.926140000000    -0.447554   
O435     O      0.728940000000     0.549950000000     0.880000000000    -0.446424   
O436     O      0.729060000000     0.960060000000     0.882140000000    -0.443691   
O437     O      0.781210000000     0.960340000000     0.879980000000    -0.44125    
O438     O      0.781090000000     0.550220000000     0.882150000000    -0.448863   
O439     O      0.781170000000     0.004340000000     0.926130000000    -0.447744   
O440     O      0.781140000000     0.507200000000     0.836010000000    -0.446839   
O441     O      0.781150000000     0.757170000000     0.836020000000    -0.446916   
O442     O      0.781160000000     0.754350000000     0.926140000000    -0.447625   
O443     O      0.781210000000     0.710340000000     0.880010000000    -0.446426   
O444     O      0.781100000000     0.800220000000     0.882140000000    -0.448927   
O445     O      0.728950000000     0.799950000000     0.880000000000    -0.446309   
O446     O      0.729060000000     0.710060000000     0.882140000000    -0.449021   
O447     O      0.728990000000     0.755940000000     0.926140000000    -0.447436   
O448     O      0.729010000000     0.753110000000     0.836020000000    -0.447069   
O449     O      0.960300000000     0.979000000000     0.379990000000    -0.435384   
O450     O      0.550190000000     0.979120000000     0.382160000000    -0.443181   
O451     O      0.004300000000     0.979060000000     0.426140000000    -0.442219   
O452     O      0.507170000000     0.979060000000     0.336020000000    -0.441084   
O453     O      0.003070000000     0.531200000000     0.336020000000    -0.448254   
O454     O      0.505900000000     0.531230000000     0.426140000000    -0.447493   
O455     O      0.549910000000     0.531270000000     0.380000000000    -0.446536   
O456     O      0.960030000000     0.531150000000     0.382140000000    -0.443779   
O457     O      0.003080000000     0.781120000000     0.336020000000    -0.448397   
O458     O      0.506050000000     0.781130000000     0.426130000000    -0.447588   
O459     O      0.549970000000     0.781160000000     0.379950000000    -0.446649   
O460     O      0.960090000000     0.781090000000     0.382190000000    -0.443544   
O461     O      0.960340000000     0.728940000000     0.379930000000    -0.441159   
O462     O      0.550220000000     0.729020000000     0.382200000000    -0.449054   
O463     O      0.004250000000     0.728970000000     0.426130000000    -0.447863   
O464     O      0.507240000000     0.728990000000     0.336020000000    -0.447062   
O465     O      0.754310000000     0.979060000000     0.426140000000    -0.441833   
O466     O      0.757150000000     0.979060000000     0.336020000000    -0.441153   
O467     O      0.800180000000     0.979120000000     0.382150000000    -0.443157   
O468     O      0.710300000000     0.979000000000     0.379990000000    -0.440748   
O469     O      0.710020000000     0.531150000000     0.382140000000    -0.449041   
O470     O      0.799910000000     0.531270000000     0.379990000000    -0.446363   
O471     O      0.753060000000     0.531200000000     0.336010000000    -0.446881   
O472     O      0.755910000000     0.531220000000     0.426130000000    -0.447545   
O473     O      0.800240000000     0.729050000000     0.382130000000    -0.448919   
O474     O      0.710360000000     0.728910000000     0.379990000000    -0.446585   
O475     O      0.757210000000     0.728990000000     0.336010000000    -0.447028   
O476     O      0.754360000000     0.728970000000     0.426130000000    -0.447624   
O477     O      0.755960000000     0.781130000000     0.426130000000    -0.447675   
O478     O      0.753090000000     0.781130000000     0.336010000000    -0.446828   
O479     O      0.710070000000     0.781060000000     0.382150000000    -0.448881   
O480     O      0.799950000000     0.781200000000     0.379980000000    -0.4463     
O481     O      0.505860000000     0.979070000000     0.586690000000    -0.441844   
O482     O      0.003050000000     0.979080000000     0.676810000000    -0.442442   
O483     O      0.959990000000     0.979130000000     0.630700000000    -0.438027   
O484     O      0.549880000000     0.979030000000     0.632830000000    -0.440711   
O485     O      0.550150000000     0.531180000000     0.630690000000    -0.449156   
O486     O      0.960270000000     0.531280000000     0.632840000000    -0.441116   
O487     O      0.507110000000     0.531230000000     0.676810000000    -0.446828   
O488     O      0.004270000000     0.531240000000     0.586690000000    -0.447869   
O489     O      0.549600000000     0.782020000000     0.633070000000    -0.445835   
O490     O      0.959740000000     0.780230000000     0.630410000000    -0.444143   
O491     O      0.502540000000     0.781100000000     0.676790000000    -0.446885   
O492     O      0.005840000000     0.781150000000     0.586690000000    -0.447685   
O493     O      0.504400000000     0.728980000000     0.586690000000    -0.447519   
O494     O      0.007710000000     0.729060000000     0.676800000000    -0.447397   
O495     O      0.960650000000     0.728120000000     0.633080000000    -0.440511   
O496     O      0.550500000000     0.729910000000     0.630410000000    -0.449544   
O497     O      0.757120000000     0.531230000000     0.676810000000    -0.446883   
O498     O      0.754280000000     0.531240000000     0.586690000000    -0.447548   
O499     O      0.710270000000     0.531290000000     0.632830000000    -0.446609   
O500     O      0.800150000000     0.531170000000     0.630680000000    -0.448754   
O501     O      0.799870000000     0.979020000000     0.632840000000    -0.440545   
O502     O      0.709990000000     0.979140000000     0.630680000000    -0.443331   
O503     O      0.755880000000     0.979070000000     0.586690000000    -0.441792   
O504     O      0.753020000000     0.979090000000     0.676810000000    -0.441183   
O505     O      0.757680000000     0.781110000000     0.676790000000    -0.446766   
O506     O      0.754510000000     0.781150000000     0.586680000000    -0.447366   
O507     O      0.710650000000     0.782030000000     0.633020000000    -0.445569   
O508     O      0.800520000000     0.780230000000     0.630450000000    -0.449386   
O509     O      0.799600000000     0.728110000000     0.633050000000    -0.445507   
O510     O      0.709740000000     0.729910000000     0.630450000000    -0.449636   
O511     O      0.755760000000     0.728970000000     0.586690000000    -0.447362   
O512     O      0.752560000000     0.729060000000     0.676800000000    -0.446802   


