data_structure

_audit_creation_method RASPA-1.0
_audit_creation_date 2023-6-5
_audit_author_name 'Poobodin Mano'

_cell_length_a    34.8446
_cell_length_b    34.8416
_cell_length_c    20.7691
_cell_angle_alpha 89.981
_cell_angle_beta  90.019
_cell_angle_gamma 119.978
_cell_volume      21841.3

_symmetry_cell_setting          triclinic
_symmetry_space_group_name_Hall 'P 1'
_symmetry_space_group_name_H-M  'P 1'
_symmetry_Int_Tables_number     1

_symmetry_equiv_pos_as_xyz 'x,y,z'

loop_
_atom_site_label
_atom_site_type_symbol
_atom_site_fract_x
_atom_site_fract_y
_atom_site_fract_z
_atom_site_charge
C1       C      0.867810000000     0.679470000000     0.531870000000     0.433925   
C2       C      0.825690000000     0.674970000000     0.768350000000     0.434049   
C3       C      0.765610000000     0.639230000000     0.614890000000     0.432729   
C4       C      0.927890000000     0.715210000000     0.685320000000     0.432684   
C5       C      0.159040000000     0.825170000000     0.935010000000     0.43394    
C6       C      0.201120000000     0.862760000000     0.698510000000     0.434214   
C7       C      0.261230000000     0.887160000000     0.851960000000     0.432507   
C8       C      0.098940000000     0.800780000000     0.781570000000     0.432705   
C9       C      0.534500000000     0.012900000000     0.865130000000     0.433772   
C10      C      0.492390000000     0.008400000000     0.101610000000     0.433918   
C11      C      0.432300000000     0.972690000000     0.948160000000     0.432804   
C12      C      0.594580000000     0.048610000000     0.018590000000     0.432506   
C13      C      0.159030000000     0.341580000000     0.435050000000     0.434116   
C14      C      0.201110000000     0.346050000000     0.198560000000     0.433895   
C15      C      0.261230000000     0.381770000000     0.351990000000     0.432528   
C16      C      0.098930000000     0.305860000000     0.281620000000     0.432732   
C17      C      0.867790000000     0.196030000000     0.031920000000     0.433853   
C18      C      0.825680000000     0.158430000000     0.268420000000     0.433703   
C19      C      0.765600000000     0.134080000000     0.114950000000     0.432658   
C20      C      0.927880000000     0.220380000000     0.185380000000     0.432587   
C21      C      0.534500000000     0.529290000000     0.365090000000     0.433917   
C22      C      0.492400000000     0.491700000000     0.601590000000     0.433816   
C23      C      0.432300000000     0.467310000000     0.448140000000     0.43277    
C24      C      0.594590000000     0.553680000000     0.518550000000     0.432694   
C25      C      0.161210000000     0.346080000000     0.698550000000     0.433972   
C26      C      0.198840000000     0.341550000000     0.935060000000     0.433911   
C27      C      0.223220000000     0.305860000000     0.781620000000     0.432784   
C28      C      0.136830000000     0.381770000000     0.851980000000     0.432715   
C29      C      0.349000000000     0.158420000000     0.768260000000     0.433954   
C30      C      0.344480000000     0.196050000000     0.531750000000     0.433856   
C31      C      0.308750000000     0.220400000000     0.685190000000     0.432753   
C32      C      0.384730000000     0.134070000000     0.614830000000     0.432631   
C33      C      0.011100000000     0.529310000000     0.865190000000     0.434391   
C34      C      0.015600000000     0.491680000000     0.101710000000     0.434428   
C35      C      0.051310000000     0.467290000000     0.948290000000     0.432624   
C36      C      0.975400000000     0.553690000000     0.018610000000     0.432156   
C37      C      0.677920000000     0.862770000000     0.198570000000     0.433931   
C38      C      0.682430000000     0.825150000000     0.435080000000     0.433811   
C39      C      0.718130000000     0.800760000000     0.281660000000     0.432773   
C40      C      0.642220000000     0.887160000000     0.351980000000     0.432808   
C41      C      0.865570000000     0.674970000000     0.268370000000     0.433977   
C42      C      0.827940000000     0.679480000000     0.031860000000     0.434024   
C43      C      0.803590000000     0.715210000000     0.185290000000     0.432822   
C44      C      0.889920000000     0.639240000000     0.114940000000     0.432701   
C45      C      0.532300000000     0.008400000000     0.601630000000     0.434006   
C46      C      0.494680000000     0.012900000000     0.365110000000     0.433868   
C47      C      0.470290000000     0.048600000000     0.518510000000     0.432855   
C48      C      0.556690000000     0.972690000000     0.448220000000     0.432844   
C49      C      0.344500000000     0.156160000000     0.031760000000     0.433933   
C50      C      0.348990000000     0.198270000000     0.268240000000     0.43402    
C51      C      0.384730000000     0.258350000000     0.114800000000     0.432797   
C52      C      0.308760000000     0.096060000000     0.185210000000     0.432777   
C53      C      0.532280000000     0.531580000000     0.101590000000     0.433803   
C54      C      0.494700000000     0.489500000000     0.865090000000     0.433926   
C55      C      0.470300000000     0.429400000000     0.018520000000     0.432779   
C56      C      0.556680000000     0.591690000000     0.948160000000     0.432469   
C57      C      0.198820000000     0.864950000000     0.435010000000     0.43395    
C58      C      0.161220000000     0.822860000000     0.198510000000     0.434132   
C59      C      0.136830000000     0.762760000000     0.351970000000     0.432712   
C60      C      0.223210000000     0.925040000000     0.281550000000     0.432621   
C61      C      0.015600000000     0.531620000000     0.601690000000     0.434478   
C62      C      0.011110000000     0.489510000000     0.365210000000     0.434329   
C63      C      0.975400000000     0.429420000000     0.518650000000     0.432152   
C64      C      0.051310000000     0.591710000000     0.448240000000     0.432628   
C65      C      0.827960000000     0.156200000000     0.531920000000     0.434017   
C66      C      0.865560000000     0.198300000000     0.768420000000     0.434089   
C67      C      0.889920000000     0.258390000000     0.614970000000     0.432714   
C68      C      0.803600000000     0.096110000000     0.685370000000     0.432666   
C69      C      0.682420000000     0.864960000000     0.935070000000     0.433937   
C70      C      0.677940000000     0.822880000000     0.698580000000     0.434066   
C71      C      0.642220000000     0.762760000000     0.852000000000     0.432603   
C72      C      0.718130000000     0.925060000000     0.781640000000     0.432875   
C73      C      0.804660000000     0.031860000000     0.720630000000     0.0312792  
C74      C      0.737150000000     0.032200000000     0.721140000000     0.0321066  
C75      C      0.715550000000     0.988980000000     0.745850000000     0.0321384  
C76      C      0.783390000000     0.989300000000     0.746440000000     0.0311755  
C77      C      0.910130000000     0.365190000000     0.553880000000     0.0311785  
C78      C      0.977970000000     0.365510000000     0.554470000000     0.0315168  
C79      C      0.956370000000     0.322290000000     0.579200000000     0.0322688  
C80      C      0.888860000000     0.322640000000     0.579710000000     0.0312116  
C81      C      0.137860000000     0.698500000000     0.387230000000     0.0312835  
C82      C      0.070370000000     0.698870000000     0.387730000000     0.0322351  
C83      C      0.048750000000     0.655640000000     0.412440000000     0.0321458  
C84      C      0.116590000000     0.655940000000     0.413040000000     0.0311407  
C85      C      0.623160000000     0.655590000000     0.912440000000     0.0320809  
C86      C      0.555660000000     0.655960000000     0.912950000000     0.03119    
C87      C      0.576940000000     0.698520000000     0.887170000000     0.0312445  
C88      C      0.644770000000     0.698830000000     0.887760000000     0.0321833  
C89      C      0.311290000000     0.032130000000     0.221040000000     0.0321887  
C90      C      0.243470000000     0.031850000000     0.220440000000     0.031231   
C91      C      0.222190000000     0.989300000000     0.246270000000     0.0312518  
C92      C      0.289680000000     0.988920000000     0.245770000000     0.0320571  
C93      C      0.382200000000     0.322290000000     0.078990000000     0.0321576  
C94      C      0.450020000000     0.322570000000     0.079590000000     0.0312246  
C95      C      0.471310000000     0.365120000000     0.053770000000     0.0312115  
C96      C      0.403820000000     0.365510000000     0.054270000000     0.0321103  
C97      C      0.641770000000     0.796020000000     0.531640000000     0.0317563  
C98      C      0.719930000000     0.836550000000     0.534870000000     0.0325437  
C99      C      0.718610000000     0.834430000000     0.602030000000     0.0317522  
C100     C      0.640450000000     0.796800000000     0.598800000000     0.0326171  
C101     C      0.641750000000     0.853450000000     0.031610000000     0.0318583  
C102     C      0.719910000000     0.891050000000     0.034850000000     0.0326175  
C103     C      0.718590000000     0.891870000000     0.102010000000     0.0317361  
C104     C      0.640430000000     0.851360000000     0.098780000000     0.0325912  
C105     C      0.715550000000     0.734290000000     0.245860000000     0.032177   
C106     C      0.783390000000     0.801780000000     0.246400000000     0.0312067  
C107     C      0.804650000000     0.780500000000     0.220550000000     0.0312284  
C108     C      0.737140000000     0.712670000000     0.221110000000     0.0320696  
C109     C      0.644770000000     0.953640000000     0.387750000000     0.0321286  
C110     C      0.576950000000     0.886140000000     0.387200000000     0.0312357  
C111     C      0.555670000000     0.907410000000     0.413010000000     0.0311779  
C112     C      0.623160000000     0.975250000000     0.412460000000     0.0321356  
C113     C      0.973600000000     0.517920000000     0.765410000000     0.032251   
C114     C      0.051760000000     0.558450000000     0.768640000000     0.0318406  
C115     C      0.053080000000     0.557680000000     0.701470000000     0.0326775  
C116     C      0.974920000000     0.520050000000     0.698240000000     0.0314652  
C117     C      0.974930000000     0.462600000000     0.198270000000     0.0314565  
C118     C      0.053090000000     0.503090000000     0.201500000000     0.0326879  
C119     C      0.051770000000     0.501000000000     0.268670000000     0.0318342  
C120     C      0.973610000000     0.463410000000     0.265430000000     0.0322413  
C121     C      0.910130000000     0.552670000000     0.053860000000     0.0311267  
C122     C      0.977970000000     0.620160000000     0.054410000000     0.0315245  
C123     C      0.956370000000     0.641780000000     0.079140000000     0.0323044  
C124     C      0.888870000000     0.573950000000     0.079700000000     0.0312595  
C125     C      0.308330000000     0.129290000000     0.864810000000     0.0317418  
C126     C      0.386490000000     0.169810000000     0.868050000000     0.0326179  
C127     C      0.385170000000     0.167690000000     0.935210000000     0.0317111  
C128     C      0.307010000000     0.130080000000     0.931970000000     0.0325865  
C129     C      0.306990000000     0.184650000000     0.431950000000     0.0325021  
C130     C      0.385160000000     0.225150000000     0.435190000000     0.0317414  
C131     C      0.386480000000     0.224350000000     0.368020000000     0.0325696  
C132     C      0.308320000000     0.186750000000     0.364780000000     0.0318519  
C133     C      0.450010000000     0.135130000000     0.579580000000     0.031213   
C134     C      0.382200000000     0.067620000000     0.579030000000     0.0321732  
C135     C      0.403820000000     0.046020000000     0.554290000000     0.0321534  
C136     C      0.471300000000     0.113870000000     0.553750000000     0.0311988  
C137     C      0.137850000000     0.447040000000     0.887230000000     0.0312363  
C138     C      0.070360000000     0.379210000000     0.887770000000     0.0321901  
C139     C      0.048750000000     0.400820000000     0.912500000000     0.0321444  
C140     C      0.116580000000     0.468320000000     0.913060000000     0.0312184  
C141     C      0.222200000000     0.240600000000     0.746330000000     0.0312231  
C142     C      0.289680000000     0.308440000000     0.745780000000     0.032131   
C143     C      0.311290000000     0.286850000000     0.721020000000     0.0321553  
C144     C      0.243480000000     0.219340000000     0.720460000000     0.031253   
C145     C      0.503970000000     0.462590000000     0.698180000000     0.0317853  
C146     C      0.466320000000     0.503130000000     0.701340000000     0.0325562  
C147     C      0.465550000000     0.501030000000     0.768510000000     0.0317921  
C148     C      0.506100000000     0.463390000000     0.765340000000     0.0325533  
C149     C      0.522970000000     0.558440000000     0.268510000000     0.0318873  
C150     C      0.560590000000     0.517880000000     0.265340000000     0.0325384  
C151     C      0.561390000000     0.520000000000     0.198180000000     0.0318246  
C152     C      0.520870000000     0.557670000000     0.201340000000     0.0324618  
C153     C      0.856250000000     0.225170000000     0.935340000000     0.0318437  
C154     C      0.893880000000     0.184610000000     0.932170000000     0.0324735  
C155     C      0.894680000000     0.186730000000     0.865000000000     0.0317757  
C156     C      0.854140000000     0.224390000000     0.868180000000     0.0324484  
C157     C      0.839370000000     0.130100000000     0.432170000000     0.0324955  
C158     C      0.798820000000     0.167750000000     0.435340000000     0.0317856  
C159     C      0.799600000000     0.169850000000     0.368170000000     0.032547   
C160     C      0.837240000000     0.129300000000     0.365000000000     0.0317993  
C161     C      0.170530000000     0.382250000000     0.531590000000     0.031786   
C162     C      0.132940000000     0.304080000000     0.534820000000     0.0326067  
C163     C      0.132120000000     0.305400000000     0.601980000000     0.0317808  
C164     C      0.172620000000     0.383570000000     0.598750000000     0.0325593  
C165     C      0.187440000000     0.304050000000     0.034850000000     0.0326045  
C166     C      0.227970000000     0.382220000000     0.031610000000     0.0318377  
C167     C      0.227190000000     0.383540000000     0.098780000000     0.0325696  
C168     C      0.189560000000     0.305380000000     0.102010000000     0.0318382  
C169     C      0.992120000000     0.219320000000     0.220630000000     0.0305874  
C170     C      0.991790000000     0.286840000000     0.221140000000     0.0314865  
C171     C      0.035010000000     0.308440000000     0.245840000000     0.0327866  
C172     C      0.034680000000     0.240590000000     0.246430000000     0.0318076  
C173     C      0.325160000000     0.379210000000     0.387740000000     0.0320908  
C174     C      0.325470000000     0.447060000000     0.387150000000     0.0311791  
C175     C      0.368040000000     0.468340000000     0.412920000000     0.0312858  
C176     C      0.368390000000     0.400830000000     0.412420000000     0.0321093  
C177     C      0.522990000000     0.972230000000     0.768580000000     0.031719   
C178     C      0.560580000000     0.050400000000     0.765350000000     0.0325561  
C179     C      0.561390000000     0.049080000000     0.698190000000     0.0317784  
C180     C      0.520900000000     0.970910000000     0.701420000000     0.0325738  
C181     C      0.466320000000     0.970910000000     0.201390000000     0.032568   
C182     C      0.503940000000     0.049080000000     0.198160000000     0.0317701  
C183     C      0.506060000000     0.050400000000     0.265320000000     0.0325602  
C184     C      0.465540000000     0.972230000000     0.268550000000     0.0317294  
C185     C      0.658490000000     0.046030000000     0.054420000000     0.0320893  
C186     C      0.658810000000     0.113880000000     0.053830000000     0.0311472  
C187     C      0.701360000000     0.135140000000     0.079670000000     0.0312409  
C188     C      0.701700000000     0.067630000000     0.079150000000     0.0322074  
C189     C      0.189550000000     0.891870000000     0.601920000000     0.0317973  
C190     C      0.227200000000     0.851330000000     0.598750000000     0.0325877  
C191     C      0.227980000000     0.853430000000     0.531590000000     0.0317564  
C192     C      0.187420000000     0.891060000000     0.534760000000     0.0325802  
C193     C      0.132930000000     0.836570000000     0.034760000000     0.0326115  
C194     C      0.170560000000     0.796010000000     0.031600000000     0.0319472  
C195     C      0.172650000000     0.796770000000     0.098760000000     0.0324943  
C196     C      0.132120000000     0.834440000000     0.101920000000     0.0317984  
C197     C      0.325500000000     0.886130000000     0.887180000000     0.0312209  
C198     C      0.325130000000     0.953630000000     0.887690000000     0.0321261  
C199     C      0.368360000000     0.975250000000     0.912380000000     0.0320703  
C200     C      0.368060000000     0.907410000000     0.912970000000     0.0311848  
C201     C      0.837220000000     0.715650000000     0.864900000000     0.0317453  
C202     C      0.799620000000     0.637480000000     0.868140000000     0.0325018  
C203     C      0.798830000000     0.638810000000     0.935300000000     0.0318188  
C204     C      0.839340000000     0.716970000000     0.932060000000     0.0325466  
C205     C      0.893890000000     0.716960000000     0.432090000000     0.0325435  
C206     C      0.856280000000     0.638790000000     0.435330000000     0.0317513  
C207     C      0.854170000000     0.637470000000     0.368160000000     0.0325431  
C208     C      0.894680000000     0.715640000000     0.364930000000     0.0317207  
C209     C      0.701390000000     0.573940000000     0.579660000000     0.0311508  
C210     C      0.701680000000     0.641770000000     0.579060000000     0.0321078  
C211     C      0.658470000000     0.620150000000     0.554330000000     0.0321536  
C212     C      0.658840000000     0.552660000000     0.553830000000     0.0312857  
C213     C      0.992110000000     0.780500000000     0.720530000000     0.0305854  
C214     C      0.991830000000     0.712680000000     0.721120000000     0.0315027  
C215     C      0.035050000000     0.734300000000     0.745820000000     0.0327566  
C216     C      0.034670000000     0.801790000000     0.746330000000     0.031829   
H1       H      0.839970000000     0.047270000000     0.711690000000     0.0381258  
H2       H      0.717630000000     0.048020000000     0.712140000000     0.0403293  
H3       H      0.680230000000     0.973180000000     0.754830000000     0.0403017  
H4       H      0.803300000000     0.973890000000     0.755400000000     0.038137   
H5       H      0.890230000000     0.380610000000     0.544910000000     0.0381712  
H6       H      0.013290000000     0.381310000000     0.545490000000     0.0407361  
H7       H      0.975890000000     0.306480000000     0.588200000000     0.0401608  
H8       H      0.853560000000     0.307230000000     0.588640000000     0.0381686  
H9       H      0.173170000000     0.713900000000     0.378300000000     0.0381664  
H10      H      0.050850000000     0.714690000000     0.378730000000     0.040382   
H11      H      0.013430000000     0.639850000000     0.421410000000     0.040428   
H12      H      0.136480000000     0.640520000000     0.422000000000     0.0381973  
H13      H      0.642670000000     0.639770000000     0.921430000000     0.0403164  
H14      H      0.520350000000     0.640560000000     0.921870000000     0.0381722  
H15      H      0.557050000000     0.713950000000     0.878220000000     0.0381561  
H16      H      0.680100000000     0.714630000000     0.878800000000     0.04029    
H17      H      0.346610000000     0.047920000000     0.212060000000     0.0403197  
H18      H      0.223590000000     0.047280000000     0.211460000000     0.0382007  
H19      H      0.186880000000     0.973910000000     0.255200000000     0.0381936  
H20      H      0.309180000000     0.973090000000     0.254780000000     0.0403379  
H21      H      0.346880000000     0.306500000000     0.087950000000     0.0403296  
H22      H      0.469900000000     0.307140000000     0.088550000000     0.0381739  
H23      H      0.506620000000     0.380520000000     0.044840000000     0.0381913  
H24      H      0.384320000000     0.381340000000     0.045270000000     0.0403378  
H25      H      0.610570000000     0.780720000000     0.505730000000     0.0370818  
H26      H      0.752000000000     0.853390000000     0.511350000000     0.036487   
H27      H      0.749810000000     0.850320000000     0.627940000000     0.0370536  
H28      H      0.608370000000     0.781570000000     0.622320000000     0.0364861  
H29      H      0.610550000000     0.837570000000     0.005700000000     0.0370821  
H30      H      0.751980000000     0.906260000000     0.011330000000     0.0364969  
H31      H      0.749790000000     0.907150000000     0.127920000000     0.0370704  
H32      H      0.608350000000     0.834540000000     0.122300000000     0.0364995  
H33      H      0.680230000000     0.714780000000     0.254860000000     0.040311   
H34      H      0.803280000000     0.837080000000     0.255360000000     0.0381568  
H35      H      0.839950000000     0.800380000000     0.211590000000     0.0381445  
H36      H      0.717630000000     0.677350000000     0.212110000000     0.0403506  
H37      H      0.680090000000     0.973140000000     0.378760000000     0.0403276  
H38      H      0.557060000000     0.850830000000     0.378260000000     0.0381731  
H39      H      0.520370000000     0.887520000000     0.421960000000     0.0381844  
H40      H      0.642670000000     0.010570000000     0.421440000000     0.040327   
H41      H      0.941530000000     0.501070000000     0.788930000000     0.0365132  
H42      H      0.082960000000     0.573750000000     0.794550000000     0.0370704  
H43      H      0.085160000000     0.572910000000     0.677960000000     0.0364819  
H44      H      0.943720000000     0.504160000000     0.672330000000     0.0370873  
H45      H      0.943730000000     0.447300000000     0.172360000000     0.0371004  
H46      H      0.085170000000     0.519910000000     0.177980000000     0.0364918  
H47      H      0.082970000000     0.516900000000     0.294580000000     0.037077   
H48      H      0.941540000000     0.448210000000     0.288950000000     0.0365288  
H49      H      0.890240000000     0.517370000000     0.044900000000     0.0382055  
H50      H      0.013290000000     0.639660000000     0.045410000000     0.0407544  
H51      H      0.975890000000     0.677100000000     0.088140000000     0.0401671  
H52      H      0.853570000000     0.554070000000     0.088650000000     0.038175   
H53      H      0.277130000000     0.114000000000     0.838900000000     0.0370831  
H54      H      0.418570000000     0.186650000000     0.844530000000     0.0364763  
H55      H      0.416370000000     0.183590000000     0.961120000000     0.0370558  
H56      H      0.274940000000     0.114860000000     0.955490000000     0.0364901  
H57      H      0.274920000000     0.167820000000     0.455470000000     0.036534   
H58      H      0.416350000000     0.240450000000     0.461100000000     0.0370806  
H59      H      0.418550000000     0.239560000000     0.344510000000     0.036494   
H60      H      0.277120000000     0.170850000000     0.338870000000     0.0370654  
H61      H      0.469890000000     0.170430000000     0.588540000000     0.0381753  
H62      H      0.346880000000     0.048100000000     0.588020000000     0.0403242  
H63      H      0.384320000000     0.010700000000     0.545300000000     0.040324   
H64      H      0.506600000000     0.133770000000     0.544800000000     0.0381809  
H65      H      0.173150000000     0.466940000000     0.878270000000     0.0381677  
H66      H      0.050850000000     0.343890000000     0.878780000000     0.040387   
H67      H      0.013430000000     0.381310000000     0.921490000000     0.0404278  
H68      H      0.136470000000     0.503620000000     0.922010000000     0.0381721  
H69      H      0.186900000000     0.220700000000     0.755290000000     0.0381976  
H70      H      0.309180000000     0.343760000000     0.754790000000     0.040319   
H71      H      0.346610000000     0.306370000000     0.712020000000     0.0403128  
H72      H      0.223590000000     0.184040000000     0.711490000000     0.0381819  
H73      H      0.519870000000     0.447270000000     0.672290000000     0.037069   
H74      H      0.451080000000     0.519970000000     0.677790000000     0.0365062  
H75      H      0.450240000000     0.516940000000     0.794390000000     0.0370661  
H76      H      0.522950000000     0.448160000000     0.788890000000     0.0365011  
H77      H      0.507070000000     0.573760000000     0.294390000000     0.0370482  
H78      H      0.575810000000     0.501020000000     0.288890000000     0.0365096  
H79      H      0.576690000000     0.504090000000     0.172300000000     0.0370714  
H80      H      0.504030000000     0.572910000000     0.177800000000     0.0365366  
H81      H      0.840350000000     0.240490000000     0.961220000000     0.0370075  
H82      H      0.909110000000     0.167760000000     0.955720000000     0.0364444  
H83      H      0.909980000000     0.170820000000     0.839130000000     0.0370052  
H84      H      0.837300000000     0.239630000000     0.844630000000     0.0365032  
H85      H      0.856220000000     0.114870000000     0.455710000000     0.0364796  
H86      H      0.783520000000     0.183660000000     0.461230000000     0.0370662  
H87      H      0.784370000000     0.186700000000     0.344630000000     0.0365008  
H88      H      0.853150000000     0.114000000000     0.339120000000     0.0370415  
H89      H      0.186420000000     0.413450000000     0.505680000000     0.0370777  
H90      H      0.117730000000     0.272010000000     0.511310000000     0.0365368  
H91      H      0.116830000000     0.274200000000     0.627890000000     0.0371193  
H92      H      0.189440000000     0.415640000000     0.622270000000     0.0365034  
H93      H      0.170600000000     0.271980000000     0.011330000000     0.0365424  
H94      H      0.243260000000     0.413420000000     0.005700000000     0.0370932  
H95      H      0.242410000000     0.415620000000     0.122290000000     0.0365108  
H96      H      0.173670000000     0.274170000000     0.127920000000     0.0370836  
H97      H      0.976710000000     0.184010000000     0.211700000000     0.0382253  
H98      H      0.975980000000     0.306360000000     0.212140000000     0.0403786  
H99      H      0.050820000000     0.343770000000     0.254810000000     0.04025    
H100     H      0.050090000000     0.220690000000     0.255390000000     0.0381278  
H101     H      0.309360000000     0.343890000000     0.378790000000     0.0403299  
H102     H      0.310050000000     0.466960000000     0.378190000000     0.0381821  
H103     H      0.383440000000     0.503650000000     0.421830000000     0.0381459  
H104     H      0.384210000000     0.381320000000     0.421410000000     0.0403174  
H105     H      0.507110000000     0.941030000000     0.794500000000     0.0370871  
H106     H      0.575790000000     0.082470000000     0.788860000000     0.0364984  
H107     H      0.576680000000     0.080280000000     0.672280000000     0.0370664  
H108     H      0.504080000000     0.938830000000     0.677900000000     0.0364867  
H109     H      0.451090000000     0.938830000000     0.177870000000     0.0365081  
H110     H      0.519830000000     0.080280000000     0.172250000000     0.0370798  
H111     H      0.522900000000     0.082470000000     0.288840000000     0.0365056  
H112     H      0.450250000000     0.941030000000     0.294460000000     0.0370902  
H113     H      0.642680000000     0.010710000000     0.045440000000     0.0403506  
H114     H      0.643400000000     0.133780000000     0.044860000000     0.0381979  
H115     H      0.716770000000     0.170450000000     0.088610000000     0.0381758  
H116     H      0.717510000000     0.048100000000     0.088160000000     0.0403118  
H117     H      0.173640000000     0.907180000000     0.627810000000     0.037087   
H118     H      0.242450000000     0.834500000000     0.622300000000     0.0364935  
H119     H      0.243280000000     0.837520000000     0.505710000000     0.0370865  
H120     H      0.170560000000     0.906290000000     0.511210000000     0.036532   
H121     H      0.117720000000     0.853440000000     0.011210000000     0.0365683  
H122     H      0.186460000000     0.780690000000     0.005710000000     0.0370711  
H123     H      0.189480000000     0.781520000000     0.122310000000     0.0365361  
H124     H      0.116820000000     0.850350000000     0.127800000000     0.0371149  
H125     H      0.310100000000     0.850820000000     0.878250000000     0.0381658  
H126     H      0.309310000000     0.973140000000     0.878690000000     0.0403117  
H127     H      0.384160000000     0.010570000000     0.921340000000     0.0403432  
H128     H      0.383480000000     0.887510000000     0.921920000000     0.038166   
H129     H      0.853110000000     0.746850000000     0.838980000000     0.0370447  
H130     H      0.784410000000     0.605410000000     0.844620000000     0.0365012  
H131     H      0.783540000000     0.607610000000     0.961210000000     0.0370309  
H132     H      0.856170000000     0.749050000000     0.955580000000     0.0364371  
H133     H      0.909100000000     0.749040000000     0.455610000000     0.0364477  
H134     H      0.840400000000     0.607590000000     0.461240000000     0.037054   
H135     H      0.837340000000     0.605400000000     0.344640000000     0.0364927  
H136     H      0.909970000000     0.746840000000     0.339020000000     0.0370267  
H137     H      0.716820000000     0.554050000000     0.588640000000     0.0381785  
H138     H      0.717470000000     0.677090000000     0.588030000000     0.0403215  
H139     H      0.642640000000     0.639660000000     0.545320000000     0.0403113  
H140     H      0.643450000000     0.517350000000     0.544900000000     0.0381401  
H141     H      0.976690000000     0.800390000000     0.711560000000     0.0382106  
H142     H      0.976040000000     0.677350000000     0.712160000000     0.040359   
H143     H      0.050880000000     0.714790000000     0.754830000000     0.0402437  
H144     H      0.050070000000     0.837100000000     0.755260000000     0.0381084  
N1       N      0.781690000000     0.053480000000     0.708350000000    -0.180078   
N2       N      0.738810000000     0.967690000000     0.758670000000    -0.180125   
N3       N      0.954710000000     0.386800000000     0.541640000000    -0.179977   
N4       N      0.911830000000     0.301010000000     0.591980000000    -0.180145   
N5       N      0.114900000000     0.720140000000     0.374950000000    -0.180132   
N6       N      0.072000000000     0.634340000000     0.425270000000    -0.180032   
N7       N      0.578620000000     0.634320000000     0.925200000000    -0.180048   
N8       N      0.621520000000     0.720130000000     0.874960000000    -0.180116   
N9       N      0.288050000000     0.053440000000     0.208200000000    -0.180132   
N10      N      0.245140000000     0.967660000000     0.258560000000    -0.180084   
N11      N      0.405440000000     0.300980000000     0.091810000000    -0.180083   
N12      N      0.448360000000     0.386770000000     0.041500000000    -0.180064   
N13      N      0.681470000000     0.818220000000     0.500010000000    -0.180829   
N14      N      0.678900000000     0.816920000000     0.633670000000    -0.180934   
N15      N      0.681450000000     0.870930000000     0.999980000000    -0.180973   
N16      N      0.678880000000     0.869690000000     0.133640000000    -0.180861   
N17      N      0.738810000000     0.778830000000     0.258670000000    -0.180182   
N18      N      0.781680000000     0.735920000000     0.208280000000    -0.180123   
N19      N      0.621530000000     0.909100000000     0.374950000000    -0.180112   
N20      N      0.578630000000     0.952000000000     0.425250000000    -0.180118   
N21      N      0.012060000000     0.536240000000     0.800270000000    -0.180739   
N22      N      0.014630000000     0.537560000000     0.666610000000    -0.180757   
N23      N      0.014640000000     0.484770000000     0.166630000000    -0.18076    
N24      N      0.012070000000     0.483530000000     0.300300000000    -0.180714   
N25      N      0.954710000000     0.575630000000     0.041600000000    -0.179921   
N26      N      0.911840000000     0.618530000000     0.091960000000    -0.180128   
N27      N      0.348040000000     0.151490000000     0.833180000000    -0.180898   
N28      N      0.345460000000     0.150200000000     0.966840000000    -0.180891   
N29      N      0.345450000000     0.202970000000     0.466820000000    -0.180822   
N30      N      0.348020000000     0.204230000000     0.333160000000    -0.180898   
N31      N      0.405430000000     0.112150000000     0.591840000000    -0.180117   
N32      N      0.448350000000     0.069280000000     0.541490000000    -0.180146   
N33      N      0.114890000000     0.402460000000     0.874970000000    -0.180071   
N34      N      0.072000000000     0.445360000000     0.925310000000    -0.180095   
N35      N      0.245150000000     0.285180000000     0.758610000000    -0.180154   
N36      N      0.288050000000     0.242320000000     0.708190000000    -0.180136   
N37      N      0.486450000000     0.484790000000     0.666510000000    -0.180877   
N38      N      0.487770000000     0.483530000000     0.800170000000    -0.180876   
N39      N      0.540460000000     0.536220000000     0.300170000000    -0.180903   
N40      N      0.539200000000     0.537520000000     0.166510000000    -0.180854   
N41      N      0.873750000000     0.202960000000     0.967000000000    -0.180918   
N42      N      0.872480000000     0.204250000000     0.833340000000    -0.180906   
N43      N      0.821030000000     0.150240000000     0.467000000000    -0.180889   
N44      N      0.819730000000     0.151510000000     0.333340000000    -0.180857   
N45      N      0.153060000000     0.342540000000     0.499960000000    -0.180924   
N46      N      0.154300000000     0.345110000000     0.633620000000    -0.180861   
N47      N      0.205760000000     0.342510000000     0.999980000000    -0.180962   
N48      N      0.207060000000     0.345080000000     0.133640000000    -0.180878   
N49      N      0.970500000000     0.242300000000     0.208360000000    -0.179944   
N50      N      0.056300000000     0.285180000000     0.258650000000    -0.180219   
N51      N      0.303860000000     0.402470000000     0.374940000000    -0.18005    
N52      N      0.389670000000     0.445380000000     0.425180000000    -0.180111   
N53      N      0.540470000000     0.011940000000     0.800210000000    -0.180813   
N54      N      0.539210000000     0.009370000000     0.666550000000    -0.180909   
N55      N      0.486440000000     0.009370000000     0.166520000000    -0.180888   
N56      N      0.487750000000     0.011940000000     0.300180000000    -0.180817   
N57      N      0.637200000000     0.069290000000     0.041580000000    -0.180037   
N58      N      0.722980000000     0.112160000000     0.091950000000    -0.180089   
N59      N      0.207070000000     0.869670000000     0.633590000000    -0.180945   
N60      N      0.205750000000     0.870920000000     0.499920000000    -0.180898   
N61      N      0.153070000000     0.818230000000     0.999930000000    -0.180947   
N62      N      0.154310000000     0.816910000000     0.133590000000    -0.180897   
N63      N      0.303860000000     0.909090000000     0.874920000000    -0.180054   
N64      N      0.389670000000     0.952000000000     0.925190000000    -0.180071   
N65      N      0.819740000000     0.675940000000     0.833270000000    -0.180887   
N66      N      0.821020000000     0.678510000000     0.966930000000    -0.180931   
N67      N      0.873770000000     0.678500000000     0.466960000000    -0.18091    
N68      N      0.872490000000     0.675930000000     0.333290000000    -0.180903   
N69      N      0.722990000000     0.618530000000     0.591900000000    -0.18009    
N70      N      0.637200000000     0.575610000000     0.541540000000    -0.18017    
N71      N      0.970520000000     0.735920000000     0.708300000000    -0.179933   
N72      N      0.056320000000     0.778840000000     0.758600000000    -0.180272   
Ni1      Ni     0.843960000000     0.641910000000     0.655630000000     1.00522    
Ni2      Ni     0.849540000000     0.712530000000     0.644600000000     1.00513    
Ni3      Ni     0.182920000000     0.811470000000     0.811290000000     1.00519    
Ni4      Ni     0.177260000000     0.876470000000     0.822230000000     1.00518    
Ni5      Ni     0.510640000000     0.975340000000     0.988880000000     1.00503    
Ni6      Ni     0.516240000000     0.045960000000     0.977850000000     1.00484    
Ni7      Ni     0.177270000000     0.308500000000     0.322320000000     1.00503    
Ni8      Ni     0.182880000000     0.379130000000     0.311290000000     1.00517    
Ni9      Ni     0.849550000000     0.144720000000     0.144700000000     1.00508    
Ni10     Ni     0.843930000000     0.209740000000     0.155650000000     1.00508    
Ni11     Ni     0.516270000000     0.477990000000     0.477870000000     1.00504    
Ni12     Ni     0.510620000000     0.542990000000     0.488810000000     1.00533    
Ni13     Ni     0.212510000000     0.379130000000     0.811310000000     1.00543    
Ni14     Ni     0.147530000000     0.308500000000     0.822300000000     1.00524    
Ni15     Ni     0.382040000000     0.209740000000     0.655500000000     1.00539    
Ni16     Ni     0.311440000000     0.144740000000     0.644500000000     1.00513    
Ni17     Ni     0.048660000000     0.542980000000     0.988940000000     1.00576    
Ni18     Ni     0.978040000000     0.478000000000     0.977950000000     1.00432    
Ni19     Ni     0.715480000000     0.876450000000     0.322320000000     1.00516    
Ni20     Ni     0.644870000000     0.811470000000     0.311330000000     1.00547    
Ni21     Ni     0.879250000000     0.712530000000     0.144610000000     1.0053     
Ni22     Ni     0.814260000000     0.641920000000     0.155610000000     1.00522    
Ni23     Ni     0.545980000000     0.045960000000     0.477870000000     1.00527    
Ni24     Ni     0.481000000000     0.975330000000     0.488860000000     1.00539    
Ni25     Ni     0.311440000000     0.174420000000     0.144480000000     1.00522    
Ni26     Ni     0.382050000000     0.179990000000     0.155520000000     1.00519    
Ni27     Ni     0.481000000000     0.513370000000     0.988810000000     1.00511    
Ni28     Ni     0.545990000000     0.507710000000     0.977870000000     1.00491    
Ni29     Ni     0.147530000000     0.846730000000     0.322230000000     1.00501    
Ni30     Ni     0.212510000000     0.841070000000     0.311290000000     1.00529    
Ni31     Ni     0.978040000000     0.507770000000     0.477930000000     1.00433    
Ni32     Ni     0.048660000000     0.513370000000     0.488960000000     1.00584    
Ni33     Ni     0.814260000000     0.180070000000     0.655650000000     1.00528    
Ni34     Ni     0.879260000000     0.174430000000     0.644690000000     1.00521    
Ni35     Ni     0.644860000000     0.841110000000     0.811310000000     1.00541    
Ni36     Ni     0.715490000000     0.846720000000     0.822340000000     1.00517    
O1       O      0.860000000000     0.645910000000     0.566700000000    -0.448285   
O2       O      0.827090000000     0.641970000000     0.743490000000    -0.447242   
O3       O      0.783540000000     0.616010000000     0.629770000000    -0.450757   
O4       O      0.905430000000     0.672770000000     0.680690000000    -0.444406   
O5       O      0.909960000000     0.738430000000     0.670460000000    -0.450782   
O6       O      0.788070000000     0.681670000000     0.619530000000    -0.444367   
O7       O      0.833510000000     0.708530000000     0.733530000000    -0.448371   
O8       O      0.866410000000     0.712470000000     0.556730000000    -0.447167   
O9       O      0.166890000000     0.799440000000     0.900230000000    -0.448291   
O10      O      0.199770000000     0.828390000000     0.723420000000    -0.447321   
O11      O      0.243340000000     0.846010000000     0.837140000000    -0.450592   
O12      O      0.121450000000     0.780830000000     0.786240000000    -0.444291   
O13      O      0.116840000000     0.841920000000     0.796390000000    -0.450703   
O14      O      0.238730000000     0.907110000000     0.847290000000    -0.444349   
O15      O      0.193280000000     0.888490000000     0.733290000000    -0.448422   
O16      O      0.160400000000     0.859550000000     0.910110000000    -0.447166   
O17      O      0.526670000000     0.979330000000     0.899950000000    -0.448249   
O18      O      0.493760000000     0.975390000000     0.076730000000    -0.447189   
O19      O      0.450210000000     0.949460000000     0.963020000000    -0.450759   
O20      O      0.572100000000     0.006170000000     0.013940000000    -0.444315   
O21      O      0.576660000000     0.071850000000     0.003720000000    -0.450494   
O22      O      0.454770000000     0.015130000000     0.952790000000    -0.444336   
O23      O      0.500210000000     0.041970000000     0.066790000000    -0.448093   
O24      O      0.533110000000     0.045910000000     0.889990000000    -0.447084   
O25      O      0.160410000000     0.308570000000     0.410180000000    -0.447207   
O26      O      0.193290000000     0.312490000000     0.233380000000    -0.448263   
O27      O      0.238750000000     0.339330000000     0.347360000000    -0.444247   
O28      O      0.116840000000     0.282620000000     0.296480000000    -0.45064    
O29      O      0.121410000000     0.348300000000     0.286250000000    -0.44438    
O30      O      0.243310000000     0.405010000000     0.337130000000    -0.450562   
O31      O      0.199740000000     0.379070000000     0.223430000000    -0.447146   
O32      O      0.166860000000     0.375140000000     0.400230000000    -0.448356   
O33      O      0.866420000000     0.161640000000     0.056830000000    -0.447094   
O34      O      0.833520000000     0.132690000000     0.233630000000    -0.448216   
O35      O      0.788080000000     0.114110000000     0.119620000000    -0.444341   
O36      O      0.909970000000     0.179240000000     0.170560000000    -0.450704   
O37      O      0.905390000000     0.240350000000     0.180710000000    -0.44436    
O38      O      0.783500000000     0.175220000000     0.129780000000    -0.450583   
O39      O      0.827050000000     0.192820000000     0.243510000000    -0.4471     
O40      O      0.859960000000     0.221770000000     0.066710000000    -0.448234   
O41      O      0.533140000000     0.494910000000     0.390000000000    -0.447161   
O42      O      0.500250000000     0.465970000000     0.566810000000    -0.448259   
O43      O      0.454800000000     0.447360000000     0.452810000000    -0.444394   
O44      O      0.576690000000     0.512540000000     0.503730000000    -0.450677   
O45      O      0.572080000000     0.573630000000     0.513870000000    -0.444377   
O46      O      0.450200000000     0.508450000000     0.462960000000    -0.450746   
O47      O      0.493750000000     0.526080000000     0.576670000000    -0.447144   
O48      O      0.526650000000     0.555020000000     0.399870000000    -0.44829    
O49      O      0.195580000000     0.379080000000     0.723440000000    -0.44727    
O50      O      0.224550000000     0.375120000000     0.900250000000    -0.448348   
O51      O      0.243160000000     0.348300000000     0.786270000000    -0.44448    
O52      O      0.177960000000     0.405010000000     0.837140000000    -0.450828   
O53      O      0.116880000000     0.339330000000     0.847330000000    -0.444399   
O54      O      0.182090000000     0.282620000000     0.796470000000    -0.45072    
O55      O      0.164460000000     0.308550000000     0.910170000000    -0.447176   
O56      O      0.135490000000     0.312510000000     0.733350000000    -0.448231   
O57      O      0.382000000000     0.192800000000     0.743370000000    -0.447184   
O58      O      0.378040000000     0.221780000000     0.566560000000    -0.448309   
O59      O      0.351190000000     0.240360000000     0.680530000000    -0.44454    
O60      O      0.407950000000     0.175210000000     0.629680000000    -0.450701   
O61      O      0.342290000000     0.114110000000     0.619470000000    -0.444366   
O62      O      0.285530000000     0.179270000000     0.670330000000    -0.450748   
O63      O      0.311480000000     0.161670000000     0.556630000000    -0.44715    
O64      O      0.315450000000     0.132690000000     0.733450000000    -0.448253   
O65      O      0.044660000000     0.555020000000     0.900000000000    -0.448478   
O66      O      0.048610000000     0.526050000000     0.076820000000    -0.447219   
O67      O      0.074540000000     0.508430000000     0.963130000000    -0.450807   
O68      O      0.017830000000     0.573630000000     0.013970000000    -0.444104   
O69      O      0.952160000000     0.512550000000     0.003770000000    -0.450527   
O70      O      0.008870000000     0.447340000000     0.952930000000    -0.443976   
O71      O      0.982040000000     0.465960000000     0.066900000000    -0.448548   
O72      O      0.978090000000     0.494930000000     0.890080000000    -0.447465   
O73      O      0.711480000000     0.888490000000     0.233370000000    -0.448306   
O74      O      0.715440000000     0.859530000000     0.410190000000    -0.44714    
O75      O      0.741360000000     0.841900000000     0.296500000000    -0.45079    
O76      O      0.684650000000     0.907110000000     0.347340000000    -0.444449   
O77      O      0.618990000000     0.846020000000     0.337150000000    -0.450854   
O78      O      0.675690000000     0.780820000000     0.286310000000    -0.444545   
O79      O      0.648870000000     0.799430000000     0.400280000000    -0.448304   
O80      O      0.644910000000     0.828400000000     0.223460000000    -0.447205   
O81      O      0.891290000000     0.708520000000     0.233560000000    -0.44839    
O82      O      0.862320000000     0.712480000000     0.056740000000    -0.447255   
O83      O      0.844720000000     0.738430000000     0.170440000000    -0.450876   
O84      O      0.909880000000     0.681680000000     0.119590000000    -0.444518   
O85      O      0.848790000000     0.616010000000     0.129790000000    -0.450731   
O86      O      0.783630000000     0.672770000000     0.180640000000    -0.444473   
O87      O      0.802220000000     0.645920000000     0.066670000000    -0.448339   
O88      O      0.831190000000     0.641960000000     0.243490000000    -0.447112   
O89      O      0.558020000000     0.041960000000     0.566820000000    -0.448304   
O90      O      0.529050000000     0.045910000000     0.389990000000    -0.447153   
O91      O      0.511420000000     0.071840000000     0.503680000000    -0.45081    
O92      O      0.576630000000     0.015130000000     0.452860000000    -0.444496   
O93      O      0.515560000000     0.949460000000     0.463050000000    -0.450916   
O94      O      0.450350000000     0.006160000000     0.513870000000    -0.444532   
O95      O      0.468960000000     0.979330000000     0.399910000000    -0.448288   
O96      O      0.497930000000     0.975390000000     0.576740000000    -0.447215   
O97      O      0.311490000000     0.157550000000     0.056620000000    -0.447117   
O98      O      0.315440000000     0.190460000000     0.233420000000    -0.448302   
O99      O      0.342300000000     0.235900000000     0.119420000000    -0.444416   
O100     O      0.285540000000     0.114000000000     0.170340000000    -0.450724   
O101     O      0.351190000000     0.118520000000     0.180580000000    -0.444489   
O102     O      0.407950000000     0.240420000000     0.129670000000    -0.450763   
O103     O      0.381990000000     0.196870000000     0.243380000000    -0.447174   
O104     O      0.378050000000     0.163960000000     0.066580000000    -0.448283   
O105     O      0.497910000000     0.530230000000     0.076680000000    -0.447125   
O106     O      0.468970000000     0.497350000000     0.899870000000    -0.448286   
O107     O      0.450360000000     0.451900000000     0.013860000000    -0.444486   
O108     O      0.515540000000     0.573800000000     0.962980000000    -0.450617   
O109     O      0.576630000000     0.569180000000     0.952820000000    -0.444294   
O110     O      0.511440000000     0.447280000000     0.003700000000    -0.450605   
O111     O      0.529070000000     0.490850000000     0.889990000000    -0.447152   
O112     O      0.558010000000     0.523720000000     0.066810000000    -0.448151   
O113     O      0.164450000000     0.863600000000     0.410100000000    -0.447142   
O114     O      0.135500000000     0.830700000000     0.233290000000    -0.448375   
O115     O      0.116880000000     0.785260000000     0.347300000000    -0.444325   
O116     O      0.182070000000     0.907160000000     0.296380000000    -0.450548   
O117     O      0.243150000000     0.902530000000     0.286230000000    -0.444489   
O118     O      0.177970000000     0.780650000000     0.337150000000    -0.450715   
O119     O      0.195590000000     0.824200000000     0.223430000000    -0.447233   
O120     O      0.224550000000     0.857100000000     0.400230000000    -0.44826    
O121     O      0.982040000000     0.523790000000     0.566870000000    -0.448643   
O122     O      0.978100000000     0.490900000000     0.390070000000    -0.447444   
O123     O      0.952160000000     0.447340000000     0.503790000000    -0.450437   
O124     O      0.008870000000     0.569240000000     0.452880000000    -0.444019   
O125     O      0.074540000000     0.573790000000     0.463110000000    -0.450818   
O126     O      0.017830000000     0.451900000000     0.514020000000    -0.444105   
O127     O      0.044670000000     0.497330000000     0.400030000000    -0.44839    
O128     O      0.048610000000     0.530240000000     0.576820000000    -0.447294   
O129     O      0.802230000000     0.164040000000     0.566710000000    -0.448315   
O130     O      0.831180000000     0.196930000000     0.743520000000    -0.447279   
O131     O      0.848780000000     0.240490000000     0.629800000000    -0.450752   
O132     O      0.783640000000     0.118600000000     0.680710000000    -0.444436   
O133     O      0.844740000000     0.114010000000     0.670540000000    -0.450742   
O134     O      0.909880000000     0.235900000000     0.619640000000    -0.444507   
O135     O      0.891290000000     0.190460000000     0.733640000000    -0.448356   
O136     O      0.862340000000     0.157570000000     0.556830000000    -0.447303   
O137     O      0.648850000000     0.857140000000     0.900250000000    -0.448224   
O138     O      0.644930000000     0.824250000000     0.723450000000    -0.447288   
O139     O      0.618990000000     0.780690000000     0.837150000000    -0.450771   
O140     O      0.675690000000     0.902580000000     0.786270000000    -0.444497   
O141     O      0.741360000000     0.907150000000     0.796500000000    -0.450866   
O142     O      0.684660000000     0.785240000000     0.847380000000    -0.444328   
O143     O      0.711500000000     0.830700000000     0.733400000000    -0.44833    
O144     O      0.715420000000     0.863580000000     0.910200000000    -0.447303   


