data_structure

_audit_creation_method RASPA-1.0
_audit_creation_date 2023-5-19
_audit_author_name 'Poobodin Mano'

_cell_length_a    42.3669
_cell_length_b    42.3717
_cell_length_c    42.362
_cell_angle_alpha 90
_cell_angle_beta  90
_cell_angle_gamma 90
_cell_volume      76046.5

_symmetry_cell_setting          triclinic
_symmetry_space_group_name_Hall 'P 1'
_symmetry_space_group_name_H-M  'P 1'
_symmetry_Int_Tables_number     1

_symmetry_equiv_pos_as_xyz 'x,y,z'

loop_
_atom_site_label
_atom_site_type_symbol
_atom_site_fract_x
_atom_site_fract_y
_atom_site_fract_z
_atom_site_charge
C1       C      0.498380000000     0.438990000000     0.247040000000     0.475011   
C2       C      0.999040000000     0.059230000000     0.250920000000     0.423252   
C3       C      0.438870000000     0.499350000000     0.249050000000     0.43977    
C4       C      0.059150000000     0.498700000000     0.248950000000     0.466956   
C5       C      0.498390000000     0.248080000000     0.189220000000     0.472783   
C6       C      0.498930000000     0.250250000000     0.309240000000     0.432653   
C7       C      0.998580000000     0.189090000000     0.250570000000     0.455515   
C8       C      0.998420000000     0.309140000000     0.247670000000     0.433039   
C9       C      0.309140000000     0.999030000000     0.248930000000     0.471498   
C10      C      0.188860000000     0.998830000000     0.248670000000     0.428857   
C11      C      0.248790000000     0.496500000000     0.188580000000     0.433224   
C12      C      0.248820000000     0.501400000000     0.308810000000     0.475872   
C13      C      0.248610000000     0.058690000000     0.999830000000     0.452435   
C14      C      0.248780000000     0.438630000000     0.497600000000     0.47175    
C15      C      0.248650000000     0.996710000000     0.058720000000     0.464783   
C16      C      0.248530000000     0.000490000000     0.438660000000     0.443523   
C17      C      0.999700000000     0.248660000000     0.059430000000     0.424818   
C18      C      0.500200000000     0.249750000000     0.439030000000     0.473233   
C19      C      0.060160000000     0.249460000000     0.999220000000     0.470777   
C20      C      0.439770000000     0.248880000000     0.999040000000     0.433184   
C21      C      0.249710000000     0.188630000000     0.499260000000     0.438252   
C22      C      0.250110000000     0.308720000000     0.498530000000     0.432292   
C23      C      0.189940000000     0.248940000000     0.999010000000     0.423107   
C24      C      0.309980000000     0.248350000000     0.998820000000     0.456227   
C25      C      0.391160000000     0.271010000000     0.015470000000     0.0343139  
C26      C      0.391530000000     0.226130000000     0.482370000000    -0.0700895  
C27      C      0.358240000000     0.269800000000     0.016660000000     0.060075   
C28      C      0.358580000000     0.226840000000     0.481020000000     0.379258   
C29      C      0.141410000000     0.229330000000     0.018570000000     0.0318799  
C30      C      0.141620000000     0.269200000000     0.479570000000    -0.0674675  
C31      C      0.108480000000     0.228430000000     0.017380000000     0.0621604  
C32      C      0.108680000000     0.270520000000     0.480720000000     0.383129   
C33      C      0.267990000000     0.357300000000     0.477260000000     0.0273282  
C34      C      0.231240000000     0.357100000000     0.019190000000    -0.062467   
C35      C      0.268640000000     0.390250000000     0.478050000000     0.0579022  
C36      C      0.229720000000     0.390010000000     0.018040000000     0.39249    
C37      C      0.267670000000     0.140010000000     0.020390000000     0.0363374  
C38      C      0.230770000000     0.140260000000     0.978600000000    -0.0689835  
C39      C      0.268400000000     0.107060000000     0.019490000000     0.0605828  
C40      C      0.229320000000     0.107340000000     0.979650000000     0.378867   
C41      C      0.227730000000     0.982940000000     0.389950000000     0.0284752  
C42      C      0.268630000000     0.020820000000     0.390450000000    -0.0610986  
C43      C      0.228740000000     0.982350000000     0.357070000000     0.0575622  
C44      C      0.267550000000     0.022440000000     0.357450000000     0.38961    
C45      C      0.230150000000     0.016710000000     0.140080000000     0.0287402  
C46      C      0.265950000000     0.473960000000     0.140200000000    -0.0688609  
C47      C      0.229190000000     0.015880000000     0.107220000000     0.0585652  
C48      C      0.267300000000     0.475110000000     0.107180000000     0.384976   
C49      C      0.479990000000     0.230260000000     0.357850000000     0.0269572  
C50      C      0.018870000000     0.270230000000     0.357490000000    -0.0609701  
C51      C      0.481630000000     0.229010000000     0.390740000000     0.0560381  
C52      C      0.018190000000     0.271200000000     0.390470000000     0.383655   
C53      C      0.015500000000     0.225860000000     0.107980000000     0.0320862  
C54      C      0.982540000000     0.270840000000     0.107740000000    -0.0709162  
C55      C      0.016350000000     0.226730000000     0.140930000000     0.0638384  
C56      C      0.980840000000     0.269790000000     0.140660000000     0.380856   
C57      C      0.140340000000     0.021260000000     0.232400000000     0.0288011  
C58      C      0.140580000000     0.476090000000     0.265130000000    -0.0700044  
C59      C      0.107420000000     0.020120000000     0.231170000000     0.0560718  
C60      C      0.107640000000     0.476930000000     0.266540000000     0.379753   
C61      C      0.390380000000     0.015450000000     0.226410000000     0.0326239  
C62      C      0.390540000000     0.483120000000     0.271870000000    -0.0651568  
C63      C      0.357450000000     0.016660000000     0.227460000000     0.0623898  
C64      C      0.357600000000     0.481690000000     0.270970000000     0.390472   
C65      C      0.518390000000     0.357580000000     0.227710000000     0.0351633  
C66      C      0.477310000000     0.357640000000     0.265410000000    -0.0648079  
C67      C      0.517020000000     0.390550000000     0.226250000000     0.0629194  
C68      C      0.477980000000     0.390540000000     0.266130000000     0.38728    
C69      C      0.016030000000     0.107830000000     0.273170000000     0.0296759  
C70      C      0.480610000000     0.107530000000     0.230100000000    -0.0722662  
C71      C      0.017220000000     0.140810000000     0.271780000000     0.0572777  
C72      C      0.479490000000     0.140410000000     0.230650000000     0.378612   
C73      C      0.498380000000     0.438990000000     0.747040000000     0.474755   
C74      C      0.999040000000     0.059230000000     0.750920000000     0.423269   
C75      C      0.438870000000     0.499350000000     0.749050000000     0.439776   
C76      C      0.059150000000     0.498700000000     0.748950000000     0.466965   
C77      C      0.498390000000     0.248080000000     0.689220000000     0.472718   
C78      C      0.498930000000     0.250250000000     0.809240000000     0.432643   
C79      C      0.998580000000     0.189090000000     0.750570000000     0.455502   
C80      C      0.998420000000     0.309140000000     0.747670000000     0.433025   
C81      C      0.309140000000     0.999030000000     0.748940000000     0.471491   
C82      C      0.188860000000     0.998830000000     0.748670000000     0.428821   
C83      C      0.248790000000     0.496500000000     0.688580000000     0.433162   
C84      C      0.248820000000     0.501400000000     0.808810000000     0.475861   
C85      C      0.248610000000     0.058690000000     0.499830000000     0.463728   
C86      C      0.248780000000     0.438630000000     0.997600000000     0.460339   
C87      C      0.248650000000     0.996710000000     0.558720000000     0.466747   
C88      C      0.248530000000     0.000490000000     0.938660000000     0.442523   
C89      C      0.999700000000     0.248660000000     0.559430000000     0.425851   
C90      C      0.500200000000     0.249750000000     0.939030000000     0.472664   
C91      C      0.060160000000     0.249460000000     0.499220000000     0.471999   
C92      C      0.439770000000     0.248880000000     0.499040000000     0.43442    
C93      C      0.249710000000     0.188630000000     0.999260000000     0.428873   
C94      C      0.250110000000     0.308720000000     0.998530000000     0.422898   
C95      C      0.189940000000     0.248940000000     0.499010000000     0.432782   
C96      C      0.309980000000     0.248350000000     0.498820000000     0.465903   
C97      C      0.391160000000     0.271010000000     0.515470000000     0.0276549  
C98      C      0.391530000000     0.226130000000     0.982370000000    -0.0711974  
C99      C      0.358240000000     0.269800000000     0.516660000000     0.054425   
C100     C      0.358580000000     0.226840000000     0.981020000000     0.377771   
C101     C      0.141410000000     0.229330000000     0.518570000000     0.0263185  
C102     C      0.141620000000     0.269200000000     0.979570000000    -0.0689902  
C103     C      0.108480000000     0.228430000000     0.517380000000     0.0555017  
C104     C      0.108680000000     0.270520000000     0.980720000000     0.382076   
C105     C      0.267990000000     0.357300000000     0.977260000000     0.02596    
C106     C      0.231240000000     0.357100000000     0.519190000000    -0.0685221  
C107     C      0.268640000000     0.390250000000     0.978050000000     0.0563709  
C108     C      0.229720000000     0.390010000000     0.518040000000     0.387241   
C109     C      0.267670000000     0.140010000000     0.520390000000     0.0304492  
C110     C      0.230770000000     0.140260000000     0.478600000000    -0.0675775  
C111     C      0.268400000000     0.107060000000     0.519490000000     0.0548596  
C112     C      0.229320000000     0.107340000000     0.479650000000     0.380248   
C113     C      0.227730000000     0.982940000000     0.889950000000     0.0283244  
C114     C      0.268630000000     0.020820000000     0.890450000000    -0.0612365  
C115     C      0.228740000000     0.982350000000     0.857070000000     0.0574864  
C116     C      0.267550000000     0.022440000000     0.857450000000     0.389529   
C117     C      0.230150000000     0.016710000000     0.640090000000     0.0284977  
C118     C      0.265950000000     0.473960000000     0.640200000000    -0.069125   
C119     C      0.229190000000     0.015880000000     0.607220000000     0.0584309  
C120     C      0.267300000000     0.475110000000     0.607180000000     0.384877   
C121     C      0.479990000000     0.230260000000     0.857850000000     0.0268931  
C122     C      0.018870000000     0.270230000000     0.857490000000    -0.0610335  
C123     C      0.481630000000     0.229010000000     0.890740000000     0.0558893  
C124     C      0.018190000000     0.271200000000     0.890470000000     0.3835     
C125     C      0.015500000000     0.225860000000     0.607980000000     0.0317569  
C126     C      0.982540000000     0.270840000000     0.607740000000    -0.0712447  
C127     C      0.016350000000     0.226730000000     0.640930000000     0.0635703  
C128     C      0.980840000000     0.269790000000     0.640660000000     0.38057    
C129     C      0.140340000000     0.021260000000     0.732400000000     0.0287218  
C130     C      0.140580000000     0.476090000000     0.765130000000    -0.0700714  
C131     C      0.107420000000     0.020120000000     0.731170000000     0.0559736  
C132     C      0.107640000000     0.476930000000     0.766540000000     0.379668   
C133     C      0.390380000000     0.015450000000     0.726410000000     0.0325322  
C134     C      0.390540000000     0.483120000000     0.771870000000    -0.0652854  
C135     C      0.357450000000     0.016660000000     0.727460000000     0.0623332  
C136     C      0.357600000000     0.481690000000     0.770970000000     0.39042    
C137     C      0.518390000000     0.357580000000     0.727710000000     0.0350815  
C138     C      0.477310000000     0.357640000000     0.765410000000    -0.0648622  
C139     C      0.517020000000     0.390550000000     0.726250000000     0.0627981  
C140     C      0.477980000000     0.390540000000     0.766130000000     0.387189   
C141     C      0.016030000000     0.107830000000     0.773170000000     0.0296111  
C142     C      0.480610000000     0.107530000000     0.730100000000    -0.072351   
C143     C      0.017220000000     0.140810000000     0.771780000000     0.0572116  
C144     C      0.479490000000     0.140410000000     0.730650000000     0.378517   
C145     C      0.498380000000     0.938990000000     0.247040000000     0.475341   
C146     C      0.999040000000     0.559230000000     0.250920000000     0.423124   
C147     C      0.438870000000     0.999340000000     0.249050000000     0.439801   
C148     C      0.059150000000     0.998700000000     0.248950000000     0.462518   
C149     C      0.498390000000     0.748080000000     0.189220000000     0.472776   
C150     C      0.498930000000     0.750250000000     0.309240000000     0.432651   
C151     C      0.998580000000     0.689090000000     0.250570000000     0.455491   
C152     C      0.998420000000     0.809130000000     0.247670000000     0.433115   
C153     C      0.309140000000     0.499030000000     0.248930000000     0.476079   
C154     C      0.188860000000     0.498840000000     0.248670000000     0.433411   
C155     C      0.248790000000     0.996500000000     0.188580000000     0.428708   
C156     C      0.248820000000     0.001400000000     0.308810000000     0.480632   
C157     C      0.248610000000     0.558690000000     0.999830000000     0.453355   
C158     C      0.248780000000     0.938630000000     0.497600000000     0.471257   
C159     C      0.248650000000     0.496710000000     0.058720000000     0.470029   
C160     C      0.248530000000     0.500490000000     0.438660000000     0.43963    
C161     C      0.999700000000     0.748660000000     0.059430000000     0.424556   
C162     C      0.500200000000     0.749750000000     0.439030000000     0.473248   
C163     C      0.060160000000     0.749460000000     0.999220000000     0.470778   
C164     C      0.439770000000     0.748880000000     0.999040000000     0.433186   
C165     C      0.249710000000     0.688630000000     0.499260000000     0.438226   
C166     C      0.250110000000     0.808710000000     0.498530000000     0.432359   
C167     C      0.189940000000     0.748950000000     0.999010000000     0.423084   
C168     C      0.309980000000     0.748340000000     0.998820000000     0.456218   
C169     C      0.391160000000     0.771010000000     0.015470000000     0.0342867  
C170     C      0.391530000000     0.726130000000     0.482370000000    -0.0701218  
C171     C      0.358240000000     0.769800000000     0.016660000000     0.060065   
C172     C      0.358580000000     0.726840000000     0.481020000000     0.379198   
C173     C      0.141410000000     0.729330000000     0.018570000000     0.03186    
C174     C      0.141620000000     0.769200000000     0.479570000000    -0.0675733  
C175     C      0.108480000000     0.728430000000     0.017380000000     0.0621228  
C176     C      0.108680000000     0.770520000000     0.480720000000     0.383116   
C177     C      0.267990000000     0.857300000000     0.477260000000     0.0272663  
C178     C      0.231240000000     0.857110000000     0.019190000000    -0.0626334  
C179     C      0.268640000000     0.890250000000     0.478050000000     0.0578201  
C180     C      0.229720000000     0.890010000000     0.018040000000     0.392483   
C181     C      0.267670000000     0.640010000000     0.020390000000     0.0362256  
C182     C      0.230770000000     0.640260000000     0.978600000000    -0.0691235  
C183     C      0.268400000000     0.607060000000     0.019490000000     0.0605499  
C184     C      0.229320000000     0.607340000000     0.979650000000     0.37891    
C185     C      0.227730000000     0.482940000000     0.389950000000     0.0311389  
C186     C      0.268630000000     0.520820000000     0.390450000000    -0.0618426  
C187     C      0.228740000000     0.482350000000     0.357070000000     0.0601747  
C188     C      0.267550000000     0.522440000000     0.357450000000     0.388819   
C189     C      0.230150000000     0.516710000000     0.140080000000     0.0260641  
C190     C      0.265950000000     0.973960000000     0.140200000000    -0.0694991  
C191     C      0.229190000000     0.515880000000     0.107220000000     0.0558602  
C192     C      0.267300000000     0.975110000000     0.107180000000     0.384303   
C193     C      0.479990000000     0.730260000000     0.357850000000     0.0269693  
C194     C      0.018870000000     0.770240000000     0.357490000000    -0.0610922  
C195     C      0.481630000000     0.729010000000     0.390740000000     0.0559713  
C196     C      0.018190000000     0.771190000000     0.390470000000     0.38359    
C197     C      0.015500000000     0.725860000000     0.107980000000     0.0320576  
C198     C      0.982540000000     0.770840000000     0.107740000000    -0.0710276  
C199     C      0.016350000000     0.726730000000     0.140930000000     0.0638003  
C200     C      0.980840000000     0.769790000000     0.140660000000     0.380849   
C201     C      0.140340000000     0.521260000000     0.232400000000     0.026094   
C202     C      0.140580000000     0.976090000000     0.265130000000    -0.0706147  
C203     C      0.107420000000     0.520120000000     0.231170000000     0.0533474  
C204     C      0.107640000000     0.976930000000     0.266540000000     0.378962   
C205     C      0.390380000000     0.515450000000     0.226410000000     0.0294247  
C206     C      0.390540000000     0.983120000000     0.271870000000    -0.0656902  
C207     C      0.357450000000     0.516660000000     0.227460000000     0.0597661  
C208     C      0.357600000000     0.981690000000     0.270970000000     0.389739   
C209     C      0.518390000000     0.857580000000     0.227710000000     0.0350565  
C210     C      0.477310000000     0.857640000000     0.265410000000    -0.0648603  
C211     C      0.517020000000     0.890550000000     0.226250000000     0.0628914  
C212     C      0.477980000000     0.890540000000     0.266130000000     0.387203   
C213     C      0.016030000000     0.607830000000     0.273170000000     0.0295554  
C214     C      0.480610000000     0.607530000000     0.230100000000    -0.0724386  
C215     C      0.017220000000     0.640810000000     0.271780000000     0.0571673  
C216     C      0.479490000000     0.640410000000     0.230650000000     0.37853    
C217     C      0.498380000000     0.938990000000     0.747040000000     0.475085   
C218     C      0.999040000000     0.559230000000     0.750920000000     0.42314    
C219     C      0.438870000000     0.999340000000     0.749050000000     0.439808   
C220     C      0.059150000000     0.998700000000     0.748950000000     0.462514   
C221     C      0.498390000000     0.748080000000     0.689220000000     0.472711   
C222     C      0.498930000000     0.750250000000     0.809240000000     0.43264    
C223     C      0.998580000000     0.689090000000     0.750570000000     0.455478   
C224     C      0.998420000000     0.809130000000     0.747670000000     0.433101   
C225     C      0.309140000000     0.499030000000     0.748940000000     0.476081   
C226     C      0.188860000000     0.498840000000     0.748670000000     0.433386   
C227     C      0.248790000000     0.996500000000     0.688580000000     0.428633   
C228     C      0.248820000000     0.001400000000     0.808810000000     0.480634   
C229     C      0.248610000000     0.558690000000     0.499830000000     0.464698   
C230     C      0.248780000000     0.938630000000     0.997600000000     0.459863   
C231     C      0.248650000000     0.496710000000     0.558720000000     0.472031   
C232     C      0.248530000000     0.500490000000     0.938660000000     0.438624   
C233     C      0.999700000000     0.748660000000     0.559430000000     0.425588   
C234     C      0.500200000000     0.749750000000     0.939030000000     0.472678   
C235     C      0.060160000000     0.749460000000     0.499220000000     0.472002   
C236     C      0.439770000000     0.748880000000     0.499040000000     0.434423   
C237     C      0.249710000000     0.688630000000     0.999260000000     0.428829   
C238     C      0.250110000000     0.808710000000     0.998530000000     0.422956   
C239     C      0.189940000000     0.748950000000     0.499010000000     0.432769   
C240     C      0.309980000000     0.748340000000     0.498820000000     0.465903   
C241     C      0.391160000000     0.771010000000     0.515470000000     0.0276186  
C242     C      0.391530000000     0.726130000000     0.982370000000    -0.0712311  
C243     C      0.358240000000     0.769800000000     0.516660000000     0.0544072  
C244     C      0.358580000000     0.726840000000     0.981020000000     0.377709   
C245     C      0.141410000000     0.729330000000     0.518570000000     0.0262903  
C246     C      0.141620000000     0.769200000000     0.979570000000    -0.0690975  
C247     C      0.108480000000     0.728430000000     0.517380000000     0.0554538  
C248     C      0.108680000000     0.770520000000     0.980720000000     0.382062   
C249     C      0.267990000000     0.857300000000     0.977260000000     0.0258982  
C250     C      0.231240000000     0.857110000000     0.519190000000    -0.0686874  
C251     C      0.268640000000     0.890250000000     0.978050000000     0.0562902  
C252     C      0.229720000000     0.890010000000     0.518040000000     0.387238   
C253     C      0.267670000000     0.640010000000     0.520390000000     0.0303222  
C254     C      0.230770000000     0.640260000000     0.478600000000    -0.0677139  
C255     C      0.268400000000     0.607060000000     0.519490000000     0.0548037  
C256     C      0.229320000000     0.607340000000     0.479650000000     0.380296   
C257     C      0.227730000000     0.482940000000     0.889950000000     0.0309884  
C258     C      0.268630000000     0.520820000000     0.890450000000    -0.0619826  
C259     C      0.228740000000     0.482350000000     0.857070000000     0.0601024  
C260     C      0.267550000000     0.522440000000     0.857450000000     0.388737   
C261     C      0.230150000000     0.516710000000     0.640090000000     0.0258065  
C262     C      0.265950000000     0.973960000000     0.640200000000    -0.0697651  
C263     C      0.229190000000     0.515880000000     0.607220000000     0.0557081  
C264     C      0.267300000000     0.975110000000     0.607180000000     0.384202   
C265     C      0.479990000000     0.730260000000     0.857850000000     0.0269051  
C266     C      0.018870000000     0.770240000000     0.857490000000    -0.0611556  
C267     C      0.481630000000     0.729010000000     0.890740000000     0.0558222  
C268     C      0.018190000000     0.771190000000     0.890470000000     0.383435   
C269     C      0.015500000000     0.725860000000     0.607980000000     0.0317273  
C270     C      0.982540000000     0.770840000000     0.607740000000    -0.0713564  
C271     C      0.016350000000     0.726730000000     0.640930000000     0.0635318  
C272     C      0.980840000000     0.769790000000     0.640660000000     0.380562   
C273     C      0.140340000000     0.521260000000     0.732400000000     0.0260058  
C274     C      0.140580000000     0.976090000000     0.765130000000    -0.0706827  
C275     C      0.107420000000     0.520120000000     0.731170000000     0.0532401  
C276     C      0.107640000000     0.976930000000     0.766540000000     0.378876   
C277     C      0.390380000000     0.515450000000     0.726410000000     0.0293222  
C278     C      0.390540000000     0.983120000000     0.771870000000    -0.0658193  
C279     C      0.357450000000     0.516660000000     0.727460000000     0.0597007  
C280     C      0.357600000000     0.981690000000     0.770970000000     0.389686   
C281     C      0.518390000000     0.857580000000     0.727710000000     0.0349747  
C282     C      0.477310000000     0.857640000000     0.765410000000    -0.0649146  
C283     C      0.517020000000     0.890550000000     0.726250000000     0.06277    
C284     C      0.477980000000     0.890540000000     0.766130000000     0.387112   
C285     C      0.016030000000     0.607830000000     0.773170000000     0.0294901  
C286     C      0.480610000000     0.607530000000     0.730100000000    -0.0725241  
C287     C      0.017220000000     0.640810000000     0.771780000000     0.0571007  
C288     C      0.479490000000     0.640410000000     0.730650000000     0.378434   
C289     C      0.998380000000     0.438990000000     0.247040000000     0.465533   
C290     C      0.499040000000     0.059230000000     0.250920000000     0.432708   
C291     C      0.938870000000     0.499350000000     0.249050000000     0.438793   
C292     C      0.559140000000     0.498700000000     0.248950000000     0.468629   
C293     C      0.998390000000     0.248080000000     0.189220000000     0.464705   
C294     C      0.998930000000     0.250250000000     0.309240000000     0.424427   
C295     C      0.498580000000     0.189090000000     0.250570000000     0.463595   
C296     C      0.498420000000     0.309140000000     0.247670000000     0.441077   
C297     C      0.809140000000     0.999030000000     0.248930000000     0.471491   
C298     C      0.688860000000     0.998830000000     0.248670000000     0.428815   
C299     C      0.748790000000     0.496500000000     0.188580000000     0.4332     
C300     C      0.748820000000     0.501400000000     0.308810000000     0.475855   
C301     C      0.748610000000     0.058690000000     0.999830000000     0.452465   
C302     C      0.748780000000     0.438630000000     0.497600000000     0.471724   
C303     C      0.748650000000     0.996710000000     0.058720000000     0.464794   
C304     C      0.748530000000     0.000490000000     0.438660000000     0.443529   
C305     C      0.499700000000     0.248660000000     0.059430000000     0.432883   
C306     C      0.000200000000     0.249750000000     0.439030000000     0.481253   
C307     C      0.560160000000     0.249460000000     0.999220000000     0.470937   
C308     C      0.939770000000     0.248880000000     0.999040000000     0.433374   
C309     C      0.749710000000     0.188630000000     0.499260000000     0.438234   
C310     C      0.750110000000     0.308720000000     0.498530000000     0.432277   
C311     C      0.689940000000     0.248940000000     0.999010000000     0.423065   
C312     C      0.809980000000     0.248350000000     0.998820000000     0.456209   
C313     C      0.891160000000     0.271010000000     0.015470000000     0.0340526  
C314     C      0.891530000000     0.226130000000     0.482370000000    -0.0702615  
C315     C      0.858240000000     0.269800000000     0.016660000000     0.0599775  
C316     C      0.858580000000     0.226840000000     0.481020000000     0.379088   
C317     C      0.641410000000     0.229330000000     0.018570000000     0.0317593  
C318     C      0.641620000000     0.269200000000     0.479570000000    -0.067622   
C319     C      0.608480000000     0.228430000000     0.017380000000     0.0618506  
C320     C      0.608680000000     0.270520000000     0.480720000000     0.382914   
C321     C      0.767990000000     0.357300000000     0.477260000000     0.0272978  
C322     C      0.731250000000     0.357100000000     0.019190000000    -0.062336   
C323     C      0.768650000000     0.390250000000     0.478050000000     0.0578078  
C324     C      0.729720000000     0.390010000000     0.018040000000     0.392122   
C325     C      0.767670000000     0.140010000000     0.020390000000     0.0363018  
C326     C      0.730770000000     0.140260000000     0.978600000000    -0.0690688  
C327     C      0.768400000000     0.107060000000     0.019490000000     0.0604391  
C328     C      0.729320000000     0.107340000000     0.979650000000     0.378856   
C329     C      0.727730000000     0.982940000000     0.389950000000     0.0284104  
C330     C      0.768630000000     0.020820000000     0.390450000000    -0.0612163  
C331     C      0.728740000000     0.982350000000     0.357070000000     0.057477   
C332     C      0.767550000000     0.022440000000     0.357450000000     0.389567   
C333     C      0.730150000000     0.016710000000     0.140080000000     0.0286654  
C334     C      0.765950000000     0.473960000000     0.140200000000    -0.0689203  
C335     C      0.729190000000     0.015880000000     0.107220000000     0.0584787  
C336     C      0.767300000000     0.475110000000     0.107180000000     0.384897   
C337     C      0.979990000000     0.230260000000     0.357850000000     0.0274551  
C338     C      0.518870000000     0.270230000000     0.357490000000    -0.0675711  
C339     C      0.981640000000     0.229010000000     0.390740000000     0.0495786  
C340     C      0.518190000000     0.271200000000     0.390470000000     0.384008   
C341     C      0.515500000000     0.225860000000     0.107980000000     0.0272116  
C342     C      0.482540000000     0.270840000000     0.107740000000    -0.069646   
C343     C      0.516350000000     0.226730000000     0.140930000000     0.0589369  
C344     C      0.480840000000     0.269790000000     0.140660000000     0.382092   
C345     C      0.640340000000     0.021260000000     0.232400000000     0.0285746  
C346     C      0.640580000000     0.476090000000     0.265130000000    -0.0701861  
C347     C      0.607420000000     0.020120000000     0.231170000000     0.0559327  
C348     C      0.607640000000     0.476930000000     0.266540000000     0.379557   
C349     C      0.890380000000     0.015450000000     0.226410000000     0.0324069  
C350     C      0.890540000000     0.483120000000     0.271870000000    -0.0654546  
C351     C      0.857460000000     0.016660000000     0.227460000000     0.0622602  
C352     C      0.857610000000     0.481690000000     0.270970000000     0.390309   
C353     C      0.018390000000     0.357580000000     0.227710000000     0.0400792  
C354     C      0.977310000000     0.357640000000     0.265410000000    -0.0659985  
C355     C      0.017020000000     0.390550000000     0.226250000000     0.0677297  
C356     C      0.977980000000     0.390540000000     0.266130000000     0.386112   
C357     C      0.516030000000     0.107830000000     0.273170000000     0.0249011  
C358     C      0.980620000000     0.107530000000     0.230100000000    -0.07349    
C359     C      0.517220000000     0.140810000000     0.271780000000     0.0523737  
C360     C      0.979490000000     0.140410000000     0.230650000000     0.377425   
C361     C      0.998380000000     0.438990000000     0.747040000000     0.465281   
C362     C      0.499040000000     0.059230000000     0.750920000000     0.432718   
C363     C      0.938870000000     0.499350000000     0.749050000000     0.4388     
C364     C      0.559140000000     0.498700000000     0.748950000000     0.468637   
C365     C      0.998390000000     0.248080000000     0.689220000000     0.464642   
C366     C      0.998930000000     0.250250000000     0.809240000000     0.424426   
C367     C      0.498580000000     0.189090000000     0.750570000000     0.463577   
C368     C      0.498420000000     0.309140000000     0.747670000000     0.441057   
C369     C      0.809140000000     0.999030000000     0.748940000000     0.471484   
C370     C      0.688860000000     0.998830000000     0.748670000000     0.428779   
C371     C      0.748790000000     0.496500000000     0.688580000000     0.433138   
C372     C      0.748820000000     0.501400000000     0.808810000000     0.475843   
C373     C      0.748610000000     0.058690000000     0.499830000000     0.463752   
C374     C      0.748780000000     0.438630000000     0.997600000000     0.460314   
C375     C      0.748650000000     0.996710000000     0.558720000000     0.466758   
C376     C      0.748530000000     0.000490000000     0.938660000000     0.44253    
C377     C      0.499700000000     0.248660000000     0.559430000000     0.433935   
C378     C      0.000200000000     0.249750000000     0.939030000000     0.480665   
C379     C      0.560160000000     0.249460000000     0.499220000000     0.472163   
C380     C      0.939770000000     0.248880000000     0.499040000000     0.434606   
C381     C      0.749710000000     0.188630000000     0.999260000000     0.428859   
C382     C      0.750110000000     0.308720000000     0.998530000000     0.422889   
C383     C      0.689940000000     0.248940000000     0.499010000000     0.43274    
C384     C      0.809980000000     0.248350000000     0.498820000000     0.465873   
C385     C      0.891160000000     0.271010000000     0.515470000000     0.0274087  
C386     C      0.891530000000     0.226130000000     0.982370000000    -0.0713667  
C387     C      0.858240000000     0.269800000000     0.516660000000     0.0543332  
C388     C      0.858580000000     0.226840000000     0.981020000000     0.377604   
C389     C      0.641410000000     0.229330000000     0.518570000000     0.0261934  
C390     C      0.641620000000     0.269200000000     0.979570000000    -0.0691454  
C391     C      0.608480000000     0.228430000000     0.517380000000     0.0551782  
C392     C      0.608680000000     0.270520000000     0.980720000000     0.38186    
C393     C      0.767990000000     0.357300000000     0.977260000000     0.0259314  
C394     C      0.731250000000     0.357100000000     0.519190000000    -0.0683927  
C395     C      0.768650000000     0.390250000000     0.978050000000     0.0562768  
C396     C      0.729720000000     0.390010000000     0.518040000000     0.386875   
C397     C      0.767670000000     0.140010000000     0.520390000000     0.0304145  
C398     C      0.730770000000     0.140260000000     0.478600000000    -0.0676636  
C399     C      0.768400000000     0.107060000000     0.519490000000     0.0547178  
C400     C      0.729320000000     0.107340000000     0.479650000000     0.380237   
C401     C      0.727730000000     0.982940000000     0.889950000000     0.0282596  
C402     C      0.768630000000     0.020820000000     0.890450000000    -0.0613539  
C403     C      0.728740000000     0.982350000000     0.857070000000     0.0574014  
C404     C      0.767550000000     0.022440000000     0.857450000000     0.389487   
C405     C      0.730150000000     0.016710000000     0.640090000000     0.0284227  
C406     C      0.765950000000     0.473960000000     0.640200000000    -0.0691844  
C407     C      0.729190000000     0.015880000000     0.607220000000     0.0583441  
C408     C      0.767300000000     0.475110000000     0.607180000000     0.384799   
C409     C      0.979990000000     0.230260000000     0.857850000000     0.0273902  
C410     C      0.518870000000     0.270230000000     0.857490000000    -0.0676261  
C411     C      0.981640000000     0.229010000000     0.890740000000     0.049444   
C412     C      0.518190000000     0.271200000000     0.890470000000     0.383851   
C413     C      0.515500000000     0.225860000000     0.607980000000     0.0268731  
C414     C      0.482540000000     0.270840000000     0.607740000000    -0.0699744  
C415     C      0.516350000000     0.226730000000     0.640930000000     0.0586647  
C416     C      0.480840000000     0.269790000000     0.640660000000     0.381805   
C417     C      0.640340000000     0.021260000000     0.732400000000     0.0284952  
C418     C      0.640580000000     0.476090000000     0.765130000000    -0.0702531  
C419     C      0.607420000000     0.020120000000     0.731170000000     0.0558343  
C420     C      0.607640000000     0.476930000000     0.766540000000     0.379471   
C421     C      0.890380000000     0.015450000000     0.726410000000     0.0323154  
C422     C      0.890540000000     0.483120000000     0.771870000000    -0.065583   
C423     C      0.857460000000     0.016660000000     0.727460000000     0.0622037  
C424     C      0.857610000000     0.481690000000     0.770970000000     0.390258   
C425     C      0.018390000000     0.357580000000     0.727710000000     0.0399975  
C426     C      0.977310000000     0.357640000000     0.765410000000    -0.0660515  
C427     C      0.017020000000     0.390550000000     0.726250000000     0.0676086  
C428     C      0.977980000000     0.390540000000     0.766130000000     0.386022   
C429     C      0.516030000000     0.107830000000     0.773170000000     0.024837   
C430     C      0.980620000000     0.107530000000     0.730100000000    -0.0735736  
C431     C      0.517220000000     0.140810000000     0.771780000000     0.0523084  
C432     C      0.979490000000     0.140410000000     0.730650000000     0.377331   
C433     C      0.998380000000     0.938990000000     0.247040000000     0.465894   
C434     C      0.499040000000     0.559230000000     0.250920000000     0.432604   
C435     C      0.938870000000     0.999340000000     0.249050000000     0.438827   
C436     C      0.559140000000     0.998700000000     0.248950000000     0.464178   
C437     C      0.998390000000     0.748080000000     0.189220000000     0.464702   
C438     C      0.998930000000     0.750250000000     0.309240000000     0.424428   
C439     C      0.498580000000     0.689090000000     0.250570000000     0.463572   
C440     C      0.498420000000     0.809130000000     0.247670000000     0.441147   
C441     C      0.809140000000     0.499030000000     0.248930000000     0.476063   
C442     C      0.688860000000     0.498840000000     0.248670000000     0.433365   
C443     C      0.748790000000     0.996500000000     0.188580000000     0.42869    
C444     C      0.748820000000     0.001400000000     0.308810000000     0.480614   
C445     C      0.748610000000     0.558690000000     0.999830000000     0.453384   
C446     C      0.748780000000     0.938630000000     0.497600000000     0.471232   
C447     C      0.748650000000     0.496710000000     0.058720000000     0.470037   
C448     C      0.748530000000     0.500490000000     0.438660000000     0.439637   
C449     C      0.499700000000     0.748660000000     0.059430000000     0.432618   
C450     C      0.000200000000     0.749750000000     0.439030000000     0.481269   
C451     C      0.560160000000     0.749460000000     0.999220000000     0.470938   
C452     C      0.939770000000     0.748880000000     0.999040000000     0.433376   
C453     C      0.749710000000     0.688630000000     0.499260000000     0.438207   
C454     C      0.750110000000     0.808710000000     0.498530000000     0.432345   
C455     C      0.689940000000     0.748950000000     0.999010000000     0.423042   
C456     C      0.809980000000     0.748340000000     0.998820000000     0.456199   
C457     C      0.891160000000     0.771010000000     0.015470000000     0.0340257  
C458     C      0.891530000000     0.726130000000     0.482370000000    -0.0702937  
C459     C      0.858240000000     0.769800000000     0.016660000000     0.0599676  
C460     C      0.858580000000     0.726840000000     0.481020000000     0.379028   
C461     C      0.641410000000     0.729330000000     0.018570000000     0.0317393  
C462     C      0.641620000000     0.769200000000     0.479570000000    -0.0677277  
C463     C      0.608480000000     0.728430000000     0.017380000000     0.061813   
C464     C      0.608680000000     0.770520000000     0.480720000000     0.382901   
C465     C      0.767990000000     0.857300000000     0.477260000000     0.0272362  
C466     C      0.731250000000     0.857110000000     0.019190000000    -0.0625022  
C467     C      0.768650000000     0.890250000000     0.478050000000     0.0577259  
C468     C      0.729720000000     0.890010000000     0.018040000000     0.392115   
C469     C      0.767670000000     0.640010000000     0.020390000000     0.0361901  
C470     C      0.730770000000     0.640260000000     0.978600000000    -0.0692089  
C471     C      0.768400000000     0.607060000000     0.019490000000     0.0604061  
C472     C      0.729320000000     0.607340000000     0.979650000000     0.3789     
C473     C      0.727730000000     0.482940000000     0.389950000000     0.0310711  
C474     C      0.768630000000     0.520820000000     0.390450000000    -0.0619608  
C475     C      0.728740000000     0.482350000000     0.357070000000     0.0600872  
C476     C      0.767550000000     0.522440000000     0.357450000000     0.388777   
C477     C      0.730150000000     0.516710000000     0.140080000000     0.0259898  
C478     C      0.765950000000     0.973960000000     0.140200000000    -0.0695572  
C479     C      0.729190000000     0.515880000000     0.107220000000     0.0557741  
C480     C      0.767300000000     0.975110000000     0.107180000000     0.384226   
C481     C      0.979990000000     0.730260000000     0.357850000000     0.0274672  
C482     C      0.518870000000     0.770240000000     0.357490000000    -0.0676881  
C483     C      0.981640000000     0.729010000000     0.390740000000     0.0495147  
C484     C      0.518190000000     0.771190000000     0.390470000000     0.383942   
C485     C      0.515500000000     0.725860000000     0.107980000000     0.0271848  
C486     C      0.482540000000     0.770840000000     0.107740000000    -0.0697583  
C487     C      0.516350000000     0.726730000000     0.140930000000     0.0588995  
C488     C      0.480840000000     0.769790000000     0.140660000000     0.382084   
C489     C      0.640340000000     0.521260000000     0.232400000000     0.0258655  
C490     C      0.640580000000     0.976090000000     0.265130000000    -0.0707952  
C491     C      0.607420000000     0.520120000000     0.231170000000     0.0532039  
C492     C      0.607640000000     0.976930000000     0.266540000000     0.378767   
C493     C      0.890380000000     0.515450000000     0.226410000000     0.0292145  
C494     C      0.890540000000     0.983120000000     0.271870000000    -0.065985   
C495     C      0.857460000000     0.516660000000     0.227460000000     0.0596413  
C496     C      0.857610000000     0.981690000000     0.270970000000     0.389578   
C497     C      0.018390000000     0.857580000000     0.227710000000     0.0399666  
C498     C      0.977310000000     0.857640000000     0.265410000000    -0.0660482  
C499     C      0.017020000000     0.890550000000     0.226250000000     0.0676883  
C500     C      0.977980000000     0.890540000000     0.266130000000     0.386038   
C501     C      0.516030000000     0.607830000000     0.273170000000     0.0247707  
C502     C      0.980620000000     0.607530000000     0.230100000000    -0.0736636  
C503     C      0.517220000000     0.640810000000     0.271780000000     0.052259   
C504     C      0.979490000000     0.640410000000     0.230650000000     0.377342   
C505     C      0.998380000000     0.938990000000     0.747040000000     0.465643   
C506     C      0.499040000000     0.559230000000     0.750920000000     0.432613   
C507     C      0.938870000000     0.999340000000     0.749050000000     0.438835   
C508     C      0.559140000000     0.998700000000     0.748950000000     0.464174   
C509     C      0.998390000000     0.748080000000     0.689220000000     0.464638   
C510     C      0.998930000000     0.750250000000     0.809240000000     0.424427   
C511     C      0.498580000000     0.689090000000     0.750570000000     0.463553   
C512     C      0.498420000000     0.809130000000     0.747670000000     0.441127   
C513     C      0.809140000000     0.499030000000     0.748940000000     0.476065   
C514     C      0.688860000000     0.498840000000     0.748670000000     0.433339   
C515     C      0.748790000000     0.996500000000     0.688580000000     0.428614   
C516     C      0.748820000000     0.001400000000     0.808810000000     0.480616   
C517     C      0.748610000000     0.558690000000     0.499830000000     0.464721   
C518     C      0.748780000000     0.938630000000     0.997600000000     0.459838   
C519     C      0.748650000000     0.496710000000     0.558720000000     0.472038   
C520     C      0.748530000000     0.500490000000     0.938660000000     0.438631   
C521     C      0.499700000000     0.748660000000     0.559430000000     0.433669   
C522     C      0.000200000000     0.749750000000     0.939030000000     0.48068    
C523     C      0.560160000000     0.749460000000     0.499220000000     0.472165   
C524     C      0.939770000000     0.748880000000     0.499040000000     0.434609   
C525     C      0.749710000000     0.688630000000     0.999260000000     0.428815   
C526     C      0.750110000000     0.808710000000     0.998530000000     0.422947   
C527     C      0.689940000000     0.748950000000     0.499010000000     0.432727   
C528     C      0.809980000000     0.748340000000     0.498820000000     0.465874   
C529     C      0.891160000000     0.771010000000     0.515470000000     0.0273726  
C530     C      0.891530000000     0.726130000000     0.982370000000    -0.0714003  
C531     C      0.858240000000     0.769800000000     0.516660000000     0.0543156  
C532     C      0.858580000000     0.726840000000     0.981020000000     0.377543   
C533     C      0.641410000000     0.729330000000     0.518570000000     0.0261651  
C534     C      0.641620000000     0.769200000000     0.979570000000    -0.0692526  
C535     C      0.608480000000     0.728430000000     0.517380000000     0.0551303  
C536     C      0.608680000000     0.770520000000     0.980720000000     0.381847   
C537     C      0.767990000000     0.857300000000     0.977260000000     0.0258698  
C538     C      0.731250000000     0.857110000000     0.519190000000    -0.0685578  
C539     C      0.768650000000     0.890250000000     0.978050000000     0.0561965  
C540     C      0.729720000000     0.890010000000     0.518040000000     0.386872   
C541     C      0.767670000000     0.640010000000     0.520390000000     0.0302874  
C542     C      0.730770000000     0.640260000000     0.478600000000    -0.0678002  
C543     C      0.768400000000     0.607060000000     0.519490000000     0.0546619  
C544     C      0.729320000000     0.607340000000     0.479650000000     0.380284   
C545     C      0.727730000000     0.482940000000     0.889950000000     0.0309207  
C546     C      0.768630000000     0.520820000000     0.890450000000    -0.0621006  
C547     C      0.728740000000     0.482350000000     0.857070000000     0.0600151  
C548     C      0.767550000000     0.522440000000     0.857450000000     0.388695   
C549     C      0.730150000000     0.516710000000     0.640090000000     0.025732   
C550     C      0.765950000000     0.973960000000     0.640200000000    -0.0698232  
C551     C      0.729190000000     0.515880000000     0.607220000000     0.0556218  
C552     C      0.767300000000     0.975110000000     0.607180000000     0.384125   
C553     C      0.979990000000     0.730260000000     0.857850000000     0.0274021  
C554     C      0.518870000000     0.770240000000     0.857490000000    -0.0677431  
C555     C      0.981640000000     0.729010000000     0.890740000000     0.0493799  
C556     C      0.518190000000     0.771190000000     0.890470000000     0.383786   
C557     C      0.515500000000     0.725860000000     0.607980000000     0.0268452  
C558     C      0.482540000000     0.770840000000     0.607740000000    -0.070087   
C559     C      0.516350000000     0.726730000000     0.640930000000     0.0586268  
C560     C      0.480840000000     0.769790000000     0.640660000000     0.381796   
C561     C      0.640340000000     0.521260000000     0.732400000000     0.0257771  
C562     C      0.640580000000     0.976090000000     0.765130000000    -0.0708633  
C563     C      0.607420000000     0.520120000000     0.731170000000     0.0530963  
C564     C      0.607640000000     0.976930000000     0.766540000000     0.37868    
C565     C      0.890380000000     0.515450000000     0.726410000000     0.0291123  
C566     C      0.890540000000     0.983120000000     0.771870000000    -0.0661138  
C567     C      0.857460000000     0.516660000000     0.727460000000     0.059576   
C568     C      0.857610000000     0.981690000000     0.770970000000     0.389525   
C569     C      0.018390000000     0.857580000000     0.727710000000     0.0398848  
C570     C      0.977310000000     0.857640000000     0.765410000000    -0.0661011  
C571     C      0.017020000000     0.890550000000     0.726250000000     0.0675672  
C572     C      0.977980000000     0.890540000000     0.766130000000     0.385948   
C573     C      0.516030000000     0.607830000000     0.773170000000     0.0247061  
C574     C      0.980620000000     0.607530000000     0.730100000000    -0.073748   
C575     C      0.517220000000     0.640810000000     0.771780000000     0.0521933  
C576     C      0.979490000000     0.640410000000     0.730650000000     0.377247   
F1       F      0.343380000000     0.204590000000     0.463590000000    -0.434555   
F2       F      0.093400000000     0.291330000000     0.461660000000    -0.409954   
F3       F      0.210490000000     0.405180000000     0.038770000000    -0.426032   
F4       F      0.210040000000     0.092190000000     0.958950000000    -0.43291    
F5       F      0.287680000000     0.542280000000     0.342280000000    -0.425066   
F6       F      0.286060000000     0.454140000000     0.091770000000    -0.427287   
F7       F      0.037390000000     0.291900000000     0.405700000000    -0.408775   
F8       F      0.963370000000     0.291970000000     0.155900000000    -0.434709   
F9       F      0.092340000000     0.454660000000     0.283850000000    -0.432543   
F10      F      0.342270000000     0.464580000000     0.293380000000    -0.424021   
F11      F      0.457550000000     0.405850000000     0.285580000000    -0.429615   
F12      F      0.461080000000     0.155460000000     0.209100000000    -0.436242   
F13      F      0.343380000000     0.204590000000     0.963590000000    -0.435247   
F14      F      0.093400000000     0.291330000000     0.961660000000    -0.410545   
F15      F      0.210490000000     0.405180000000     0.538770000000    -0.426926   
F16      F      0.210040000000     0.092190000000     0.458950000000    -0.432487   
F17      F      0.287680000000     0.542280000000     0.842280000000    -0.425226   
F18      F      0.286060000000     0.454140000000     0.591780000000    -0.428502   
F19      F      0.037390000000     0.291900000000     0.905700000000    -0.409078   
F20      F      0.963370000000     0.291970000000     0.655900000000    -0.43505    
F21      F      0.092340000000     0.454660000000     0.783850000000    -0.432702   
F22      F      0.342270000000     0.464580000000     0.793380000000    -0.424155   
F23      F      0.457550000000     0.405850000000     0.785580000000    -0.42977    
F24      F      0.461080000000     0.155460000000     0.709100000000    -0.4365     
F25      F      0.343380000000     0.704590000000     0.463590000000    -0.434673   
F26      F      0.093400000000     0.791330000000     0.461660000000    -0.410042   
F27      F      0.210490000000     0.905180000000     0.038770000000    -0.426332   
F28      F      0.210040000000     0.592200000000     0.958950000000    -0.433444   
F29      F      0.287680000000     0.042280000000     0.342280000000    -0.424581   
F30      F      0.286060000000     0.954140000000     0.091770000000    -0.427494   
F31      F      0.037390000000     0.791900000000     0.405700000000    -0.408788   
F32      F      0.963370000000     0.791970000000     0.155900000000    -0.434795   
F33      F      0.092340000000     0.954650000000     0.283850000000    -0.432633   
F34      F      0.342270000000     0.964580000000     0.293380000000    -0.42446    
F35      F      0.457550000000     0.905850000000     0.285580000000    -0.429762   
F36      F      0.461080000000     0.655460000000     0.209100000000    -0.436366   
F37      F      0.343380000000     0.704590000000     0.963590000000    -0.435367   
F38      F      0.093400000000     0.791330000000     0.961660000000    -0.410632   
F39      F      0.210490000000     0.905180000000     0.538770000000    -0.427226   
F40      F      0.210040000000     0.592200000000     0.458950000000    -0.433019   
F41      F      0.287680000000     0.042280000000     0.842280000000    -0.42474    
F42      F      0.286060000000     0.954140000000     0.591780000000    -0.428708   
F43      F      0.037390000000     0.791900000000     0.905700000000    -0.40909    
F44      F      0.963370000000     0.791970000000     0.655900000000    -0.435137   
F45      F      0.092340000000     0.954650000000     0.783850000000    -0.432791   
F46      F      0.342270000000     0.964580000000     0.793380000000    -0.424594   
F47      F      0.457550000000     0.905850000000     0.785580000000    -0.429917   
F48      F      0.461080000000     0.655460000000     0.709100000000    -0.436626   
F49      F      0.843380000000     0.204590000000     0.463590000000    -0.434765   
F50      F      0.593400000000     0.291330000000     0.461660000000    -0.410534   
F51      F      0.710480000000     0.405180000000     0.038770000000    -0.426177   
F52      F      0.710040000000     0.092190000000     0.958950000000    -0.433136   
F53      F      0.787680000000     0.542280000000     0.342280000000    -0.425203   
F54      F      0.786060000000     0.454140000000     0.091770000000    -0.427447   
F55      F      0.537390000000     0.291900000000     0.405700000000    -0.409815   
F56      F      0.463370000000     0.291970000000     0.155900000000    -0.434094   
F57      F      0.592340000000     0.454660000000     0.283850000000    -0.433494   
F58      F      0.842270000000     0.464580000000     0.293380000000    -0.424107   
F59      F      0.957550000000     0.405850000000     0.285580000000    -0.429995   
F60      F      0.961080000000     0.155460000000     0.209100000000    -0.436886   
F61      F      0.843380000000     0.204590000000     0.963590000000    -0.435456   
F62      F      0.593400000000     0.291330000000     0.961660000000    -0.411125   
F63      F      0.710480000000     0.405180000000     0.538770000000    -0.427073   
F64      F      0.710040000000     0.092190000000     0.458950000000    -0.432713   
F65      F      0.787680000000     0.542280000000     0.842280000000    -0.425362   
F66      F      0.786060000000     0.454140000000     0.591780000000    -0.428661   
F67      F      0.537390000000     0.291900000000     0.905700000000    -0.410116   
F68      F      0.463370000000     0.291970000000     0.655900000000    -0.434437   
F69      F      0.592340000000     0.454660000000     0.783850000000    -0.433652   
F70      F      0.842270000000     0.464580000000     0.793380000000    -0.424241   
F71      F      0.957550000000     0.405850000000     0.785580000000    -0.430148   
F72      F      0.961080000000     0.155460000000     0.709100000000    -0.437144   
F73      F      0.843380000000     0.704590000000     0.463590000000    -0.434884   
F74      F      0.593400000000     0.791330000000     0.461660000000    -0.410622   
F75      F      0.710480000000     0.905180000000     0.038770000000    -0.426476   
F76      F      0.710040000000     0.592200000000     0.958950000000    -0.433671   
F77      F      0.787680000000     0.042280000000     0.342280000000    -0.424718   
F78      F      0.786060000000     0.954140000000     0.091770000000    -0.427653   
F79      F      0.537390000000     0.791900000000     0.405700000000    -0.409827   
F80      F      0.463370000000     0.791970000000     0.155900000000    -0.434183   
F81      F      0.592340000000     0.954650000000     0.283850000000    -0.433581   
F82      F      0.842270000000     0.964580000000     0.293380000000    -0.424545   
F83      F      0.957550000000     0.905850000000     0.285580000000    -0.430141   
F84      F      0.961080000000     0.655460000000     0.209100000000    -0.437011   
F85      F      0.843380000000     0.704590000000     0.963590000000    -0.435576   
F86      F      0.593400000000     0.791330000000     0.961660000000    -0.411212   
F87      F      0.710480000000     0.905180000000     0.538770000000    -0.427373   
F88      F      0.710040000000     0.592200000000     0.458950000000    -0.433246   
F89      F      0.787680000000     0.042280000000     0.842280000000    -0.424876   
F90      F      0.786060000000     0.954140000000     0.591780000000    -0.428866   
F91      F      0.537390000000     0.791900000000     0.905700000000    -0.410127   
F92      F      0.463370000000     0.791970000000     0.655900000000    -0.434525   
F93      F      0.592340000000     0.954650000000     0.783850000000    -0.433738   
F94      F      0.842270000000     0.964580000000     0.793380000000    -0.424678   
F95      F      0.957550000000     0.905850000000     0.785580000000    -0.430294   
F96      F      0.961080000000     0.655460000000     0.709100000000    -0.43727    
H1       H      0.345840000000     0.287220000000     0.030750000000     0.0451466  
H2       H      0.403260000000     0.288980000000     0.029110000000     0.0530658  
H3       H      0.403980000000     0.208280000000     0.468870000000     0.100516   
H4       H      0.096120000000     0.211730000000     0.032360000000     0.0393949  
H5       H      0.153580000000     0.212960000000     0.034040000000     0.0481529  
H6       H      0.154020000000     0.285360000000     0.464030000000     0.106587   
H7       H      0.283990000000     0.402570000000     0.461660000000     0.0459639  
H8       H      0.283210000000     0.345160000000     0.460630000000     0.0526632  
H9       H      0.216400000000     0.344780000000     0.036030000000     0.105883   
H10      H      0.283840000000     0.094730000000     0.035780000000     0.0436214  
H11      H      0.282940000000     0.152130000000     0.036990000000     0.0538948  
H12      H      0.215840000000     0.152610000000     0.961850000000     0.104596   
H13      H      0.212910000000     0.966470000000     0.344680000000     0.0460731  
H14      H      0.211480000000     0.967180000000     0.401930000000     0.0552971  
H15      H      0.284980000000     0.536050000000     0.402970000000     0.110174   
H16      H      0.214120000000     0.032630000000     0.095040000000     0.0421197  
H17      H      0.215430000000     0.033770000000     0.152260000000     0.0467342  
H18      H      0.280540000000     0.456930000000     0.152550000000     0.104532   
H19      H      0.466840000000     0.212170000000     0.403130000000     0.0430037  
H20      H      0.464410000000     0.213940000000     0.345730000000     0.0518428  
H21      H      0.034210000000     0.286530000000     0.345040000000     0.107509   
H22      H      0.030310000000     0.209180000000     0.153310000000     0.0449356  
H23      H      0.029220000000     0.207990000000     0.095810000000     0.0481425  
H24      H      0.969220000000     0.288870000000     0.095350000000     0.10234    
H25      H      0.095030000000     0.037650000000     0.217200000000     0.0394501  
H26      H      0.152530000000     0.039300000000     0.218920000000     0.045794   
H27      H      0.153000000000     0.458100000000     0.278480000000     0.101574   
H28      H      0.345100000000     0.030470000000     0.209780000000     0.0431864  
H29      H      0.402600000000     0.028770000000     0.208270000000     0.051094   
H30      H      0.402930000000     0.469940000000     0.290010000000     0.122193   
H31      H      0.032930000000     0.402830000000     0.210370000000     0.048518   
H32      H      0.534860000000     0.345290000000     0.212440000000     0.0562898  
H33      H      0.461000000000     0.345450000000     0.280940000000     0.108666   
H34      H      0.032220000000     0.153250000000     0.288400000000     0.0417359  
H35      H      0.030590000000     0.095680000000     0.290370000000     0.0502422  
H36      H      0.466170000000     0.095160000000     0.212940000000     0.101039   
H37      H      0.345840000000     0.287220000000     0.530750000000     0.0446622  
H38      H      0.403260000000     0.288980000000     0.529110000000     0.0523424  
H39      H      0.403980000000     0.208280000000     0.968870000000     0.100093   
H40      H      0.096120000000     0.211730000000     0.532360000000     0.0387597  
H41      H      0.153580000000     0.212960000000     0.534040000000     0.0477466  
H42      H      0.154020000000     0.285360000000     0.964030000000     0.106279   
H43      H      0.283990000000     0.402570000000     0.961660000000     0.0457967  
H44      H      0.283210000000     0.345160000000     0.960630000000     0.0523485  
H45      H      0.216400000000     0.344780000000     0.536030000000     0.105781   
H46      H      0.283840000000     0.094730000000     0.535780000000     0.0434405  
H47      H      0.282940000000     0.152130000000     0.536990000000     0.0536817  
H48      H      0.215840000000     0.152610000000     0.461850000000     0.104861   
H49      H      0.212910000000     0.966470000000     0.844680000000     0.0459555  
H50      H      0.211480000000     0.967180000000     0.901930000000     0.0549019  
H51      H      0.284980000000     0.536050000000     0.902970000000     0.109782   
H52      H      0.214120000000     0.032630000000     0.595040000000     0.0412323  
H53      H      0.215430000000     0.033770000000     0.652260000000     0.0464829  
H54      H      0.280540000000     0.456930000000     0.652550000000     0.104335   
H55      H      0.466840000000     0.212170000000     0.903130000000     0.0427849  
H56      H      0.464410000000     0.213940000000     0.845730000000     0.0517411  
H57      H      0.034210000000     0.286530000000     0.845040000000     0.107412   
H58      H      0.030310000000     0.209180000000     0.653310000000     0.0446844  
H59      H      0.029220000000     0.207990000000     0.595810000000     0.0473119  
H60      H      0.969220000000     0.288870000000     0.595350000000     0.101508   
H61      H      0.095030000000     0.037650000000     0.717200000000     0.0392363  
H62      H      0.152530000000     0.039300000000     0.718920000000     0.0456362  
H63      H      0.153000000000     0.458100000000     0.778480000000     0.101492   
H64      H      0.345100000000     0.030470000000     0.709780000000     0.0430015  
H65      H      0.402600000000     0.028770000000     0.708270000000     0.0508424  
H66      H      0.402930000000     0.469940000000     0.790000000000     0.122087   
H67      H      0.032930000000     0.402830000000     0.710370000000     0.0482739  
H68      H      0.534860000000     0.345290000000     0.712440000000     0.0560957  
H69      H      0.461000000000     0.345450000000     0.780940000000     0.10858    
H70      H      0.032220000000     0.153250000000     0.788400000000     0.041645   
H71      H      0.030590000000     0.095680000000     0.790370000000     0.0501038  
H72      H      0.466170000000     0.095160000000     0.712940000000     0.100806   
H73      H      0.345840000000     0.787220000000     0.030750000000     0.0450997  
H74      H      0.403260000000     0.788980000000     0.029110000000     0.0529926  
H75      H      0.403980000000     0.708280000000     0.468870000000     0.1004     
H76      H      0.096120000000     0.711730000000     0.032360000000     0.0393054  
H77      H      0.153580000000     0.712960000000     0.034040000000     0.0480897  
H78      H      0.154020000000     0.785350000000     0.464030000000     0.106571   
H79      H      0.283990000000     0.902570000000     0.461660000000     0.0457036  
H80      H      0.283210000000     0.845160000000     0.460630000000     0.0526033  
H81      H      0.216400000000     0.844780000000     0.036030000000     0.105855   
H82      H      0.283840000000     0.594730000000     0.035780000000     0.0432249  
H83      H      0.282940000000     0.652130000000     0.036990000000     0.0537932  
H84      H      0.215840000000     0.652610000000     0.961850000000     0.104522   
H85      H      0.212910000000     0.466460000000     0.344680000000     0.0459828  
H86      H      0.211480000000     0.467180000000     0.401930000000     0.0551877  
H87      H      0.284980000000     0.036050000000     0.402970000000     0.110434   
H88      H      0.214120000000     0.532630000000     0.095040000000     0.0421016  
H89      H      0.215430000000     0.533770000000     0.152260000000     0.0467448  
H90      H      0.280540000000     0.956930000000     0.152550000000     0.104391   
H91      H      0.466840000000     0.712170000000     0.403130000000     0.042896   
H92      H      0.464410000000     0.713940000000     0.345730000000     0.0517388  
H93      H      0.034210000000     0.786530000000     0.345040000000     0.10752    
H94      H      0.030310000000     0.709180000000     0.153310000000     0.0448764  
H95      H      0.029220000000     0.707980000000     0.095810000000     0.0480533  
H96      H      0.969220000000     0.788860000000     0.095350000000     0.102296   
H97      H      0.095030000000     0.537650000000     0.217200000000     0.0395007  
H98      H      0.152530000000     0.539300000000     0.218920000000     0.0458562  
H99      H      0.153000000000     0.958100000000     0.278480000000     0.101503   
H100     H      0.345100000000     0.530470000000     0.209780000000     0.0429732  
H101     H      0.402600000000     0.528770000000     0.208270000000     0.0508522  
H102     H      0.402930000000     0.969940000000     0.290010000000     0.121977   
H103     H      0.032930000000     0.902830000000     0.210370000000     0.0482053  
H104     H      0.534860000000     0.845300000000     0.212440000000     0.0562117  
H105     H      0.461000000000     0.845450000000     0.280940000000     0.108628   
H106     H      0.032220000000     0.653250000000     0.288400000000     0.0416113  
H107     H      0.030590000000     0.595680000000     0.290370000000     0.0498215  
H108     H      0.466170000000     0.595160000000     0.212940000000     0.100754   
H109     H      0.345840000000     0.787220000000     0.530750000000     0.0446156  
H110     H      0.403260000000     0.788980000000     0.529110000000     0.0522692  
H111     H      0.403980000000     0.708280000000     0.968870000000     0.0999762  
H112     H      0.096120000000     0.711730000000     0.532360000000     0.0386677  
H113     H      0.153580000000     0.712960000000     0.534040000000     0.0476814  
H114     H      0.154020000000     0.785350000000     0.964030000000     0.106264   
H115     H      0.283990000000     0.902570000000     0.961660000000     0.0455366  
H116     H      0.283210000000     0.845160000000     0.960630000000     0.0522888  
H117     H      0.216400000000     0.844780000000     0.536030000000     0.105751   
H118     H      0.283840000000     0.594730000000     0.535780000000     0.0430418  
H119     H      0.282940000000     0.652130000000     0.536990000000     0.053579   
H120     H      0.215840000000     0.652610000000     0.461850000000     0.104788   
H121     H      0.212910000000     0.466460000000     0.844680000000     0.0458645  
H122     H      0.211480000000     0.467180000000     0.901930000000     0.0547916  
H123     H      0.284980000000     0.036050000000     0.902970000000     0.110044   
H124     H      0.214120000000     0.532630000000     0.595040000000     0.0412111  
H125     H      0.215430000000     0.533770000000     0.652260000000     0.0464936  
H126     H      0.280540000000     0.956930000000     0.652550000000     0.104194   
H127     H      0.466840000000     0.712170000000     0.903130000000     0.0426765  
H128     H      0.464410000000     0.713940000000     0.845730000000     0.0516367  
H129     H      0.034210000000     0.786530000000     0.845040000000     0.107422   
H130     H      0.030310000000     0.709180000000     0.653310000000     0.0446243  
H131     H      0.029220000000     0.707980000000     0.595810000000     0.0472204  
H132     H      0.969220000000     0.788860000000     0.595350000000     0.101463   
H133     H      0.095030000000     0.537650000000     0.717200000000     0.0392859  
H134     H      0.152530000000     0.539300000000     0.718920000000     0.0456977  
H135     H      0.153000000000     0.958100000000     0.778480000000     0.101421   
H136     H      0.345100000000     0.530470000000     0.709780000000     0.0427861  
H137     H      0.402600000000     0.528770000000     0.708270000000     0.0505982  
H138     H      0.402930000000     0.969940000000     0.790000000000     0.121872   
H139     H      0.032930000000     0.902830000000     0.710370000000     0.0479604  
H140     H      0.534860000000     0.845300000000     0.712440000000     0.0560173  
H141     H      0.461000000000     0.845450000000     0.780940000000     0.108542   
H142     H      0.032220000000     0.653250000000     0.788400000000     0.0415198  
H143     H      0.030590000000     0.595680000000     0.790370000000     0.0496817  
H144     H      0.466170000000     0.595160000000     0.712940000000     0.10052    
H145     H      0.845840000000     0.287220000000     0.030750000000     0.0450333  
H146     H      0.903260000000     0.288980000000     0.029110000000     0.052812   
H147     H      0.903980000000     0.208280000000     0.468870000000     0.100033   
H148     H      0.596120000000     0.211730000000     0.032360000000     0.0390055  
H149     H      0.653580000000     0.212960000000     0.034040000000     0.047988   
H150     H      0.654020000000     0.285360000000     0.464030000000     0.106427   
H151     H      0.783990000000     0.402570000000     0.461660000000     0.0458453  
H152     H      0.783210000000     0.345160000000     0.460630000000     0.0525593  
H153     H      0.716400000000     0.344780000000     0.036030000000     0.105674   
H154     H      0.783830000000     0.094730000000     0.035780000000     0.0434889  
H155     H      0.782940000000     0.152130000000     0.036990000000     0.0537729  
H156     H      0.715840000000     0.152610000000     0.961850000000     0.104489   
H157     H      0.712920000000     0.966470000000     0.344680000000     0.0459495  
H158     H      0.711480000000     0.967180000000     0.401930000000     0.0551141  
H159     H      0.784970000000     0.536050000000     0.402970000000     0.110063   
H160     H      0.714120000000     0.032630000000     0.095040000000     0.0419542  
H161     H      0.715430000000     0.033770000000     0.152260000000     0.0466088  
H162     H      0.780540000000     0.456930000000     0.152550000000     0.104445   
H163     H      0.966840000000     0.212170000000     0.403130000000     0.0433891  
H164     H      0.964410000000     0.213940000000     0.345730000000     0.051022   
H165     H      0.534210000000     0.286530000000     0.345040000000     0.107754   
H166     H      0.530310000000     0.209180000000     0.153310000000     0.0446239  
H167     H      0.529220000000     0.207990000000     0.095810000000     0.0480782  
H168     H      0.469220000000     0.288870000000     0.095350000000     0.102594   
H169     H      0.595040000000     0.037650000000     0.217200000000     0.0387113  
H170     H      0.652520000000     0.039300000000     0.218920000000     0.0456077  
H171     H      0.653000000000     0.458100000000     0.278480000000     0.101405   
H172     H      0.845100000000     0.030470000000     0.209780000000     0.0430912  
H173     H      0.902600000000     0.028770000000     0.208270000000     0.0508451  
H174     H      0.902930000000     0.469940000000     0.290010000000     0.121983   
H175     H      0.532930000000     0.402830000000     0.210370000000     0.0483295  
H176     H      0.034860000000     0.345290000000     0.212440000000     0.0565043  
H177     H      0.961000000000     0.345450000000     0.280940000000     0.108398   
H178     H      0.532220000000     0.153250000000     0.288400000000     0.0414913  
H179     H      0.530590000000     0.095680000000     0.290370000000     0.0500554  
H180     H      0.966170000000     0.095160000000     0.212940000000     0.100781   
H181     H      0.845840000000     0.287220000000     0.530750000000     0.0445493  
H182     H      0.903260000000     0.288980000000     0.529110000000     0.0520898  
H183     H      0.903980000000     0.208280000000     0.968870000000     0.0996132  
H184     H      0.596120000000     0.211730000000     0.532360000000     0.0383682  
H185     H      0.653580000000     0.212960000000     0.534040000000     0.0475808  
H186     H      0.654020000000     0.285360000000     0.964030000000     0.106119   
H187     H      0.783990000000     0.402570000000     0.961660000000     0.0456798  
H188     H      0.783210000000     0.345160000000     0.960630000000     0.0522457  
H189     H      0.716400000000     0.344780000000     0.536030000000     0.105571   
H190     H      0.783830000000     0.094730000000     0.535780000000     0.043309   
H191     H      0.782940000000     0.152130000000     0.536990000000     0.0535605  
H192     H      0.715840000000     0.152610000000     0.461850000000     0.104755   
H193     H      0.712920000000     0.966470000000     0.844680000000     0.045832   
H194     H      0.711480000000     0.967180000000     0.901930000000     0.054719   
H195     H      0.784970000000     0.536050000000     0.902970000000     0.109673   
H196     H      0.714120000000     0.032630000000     0.595040000000     0.0410659  
H197     H      0.715430000000     0.033770000000     0.652260000000     0.0463571  
H198     H      0.780540000000     0.456930000000     0.652550000000     0.104248   
H199     H      0.966840000000     0.212170000000     0.903130000000     0.0431706  
H200     H      0.964410000000     0.213940000000     0.845730000000     0.0509222  
H201     H      0.534210000000     0.286530000000     0.845040000000     0.107655   
H202     H      0.530310000000     0.209180000000     0.653310000000     0.0443718  
H203     H      0.529220000000     0.207990000000     0.595810000000     0.0472455  
H204     H      0.469220000000     0.288870000000     0.595350000000     0.101759   
H205     H      0.595040000000     0.037650000000     0.717200000000     0.0384968  
H206     H      0.652520000000     0.039300000000     0.718920000000     0.0454495  
H207     H      0.653000000000     0.458100000000     0.778480000000     0.101323   
H208     H      0.845100000000     0.030470000000     0.709780000000     0.0429065  
H209     H      0.902600000000     0.028770000000     0.708270000000     0.0505939  
H210     H      0.902930000000     0.469940000000     0.790000000000     0.121879   
H211     H      0.532930000000     0.402830000000     0.710370000000     0.0480839  
H212     H      0.034860000000     0.345290000000     0.712440000000     0.0563116  
H213     H      0.961000000000     0.345450000000     0.780940000000     0.108313   
H214     H      0.532220000000     0.153250000000     0.788400000000     0.0414008  
H215     H      0.530590000000     0.095680000000     0.790370000000     0.0499172  
H216     H      0.966170000000     0.095160000000     0.712940000000     0.100549   
H217     H      0.845840000000     0.787220000000     0.030750000000     0.0449868  
H218     H      0.903260000000     0.788980000000     0.029110000000     0.0527396  
H219     H      0.903980000000     0.708280000000     0.468870000000     0.0999173  
H220     H      0.596120000000     0.711730000000     0.032360000000     0.0389155  
H221     H      0.653580000000     0.712960000000     0.034040000000     0.0479245  
H222     H      0.654020000000     0.785350000000     0.464030000000     0.106411   
H223     H      0.783990000000     0.902570000000     0.461660000000     0.0455858  
H224     H      0.783210000000     0.845160000000     0.460630000000     0.0524998  
H225     H      0.716400000000     0.844780000000     0.036030000000     0.105646   
H226     H      0.783830000000     0.594730000000     0.035780000000     0.0430926  
H227     H      0.782940000000     0.652130000000     0.036990000000     0.0536713  
H228     H      0.715840000000     0.652610000000     0.961850000000     0.104415   
H229     H      0.712920000000     0.466460000000     0.344680000000     0.0458584  
H230     H      0.711480000000     0.467180000000     0.401930000000     0.0550042  
H231     H      0.784970000000     0.036050000000     0.402970000000     0.110323   
H232     H      0.714120000000     0.532630000000     0.095040000000     0.0419351  
H233     H      0.715430000000     0.533770000000     0.152260000000     0.0466187  
H234     H      0.780540000000     0.956930000000     0.152550000000     0.104305   
H235     H      0.966840000000     0.712170000000     0.403130000000     0.0432808  
H236     H      0.964410000000     0.713940000000     0.345730000000     0.0509178  
H237     H      0.534210000000     0.786530000000     0.345040000000     0.107766   
H238     H      0.530310000000     0.709180000000     0.153310000000     0.0445635  
H239     H      0.529220000000     0.707980000000     0.095810000000     0.0479869  
H240     H      0.469220000000     0.788860000000     0.095350000000     0.102548   
H241     H      0.595040000000     0.537650000000     0.217200000000     0.0387604  
H242     H      0.652520000000     0.539300000000     0.218920000000     0.0456697  
H243     H      0.653000000000     0.958100000000     0.278480000000     0.101334   
H244     H      0.845100000000     0.530470000000     0.209780000000     0.0428767  
H245     H      0.902600000000     0.528770000000     0.208270000000     0.0506031  
H246     H      0.902930000000     0.969940000000     0.290010000000     0.121769   
H247     H      0.532930000000     0.902830000000     0.210370000000     0.0480165  
H248     H      0.034860000000     0.845300000000     0.212440000000     0.056425   
H249     H      0.961000000000     0.845450000000     0.280940000000     0.10836    
H250     H      0.532220000000     0.653250000000     0.288400000000     0.0413661  
H251     H      0.530590000000     0.595680000000     0.290370000000     0.0496333  
H252     H      0.966170000000     0.595160000000     0.212940000000     0.100497   
H253     H      0.845840000000     0.787220000000     0.530750000000     0.0445031  
H254     H      0.903260000000     0.788980000000     0.529110000000     0.0520173  
H255     H      0.903980000000     0.708280000000     0.968870000000     0.0994959  
H256     H      0.596120000000     0.711730000000     0.532360000000     0.0382756  
H257     H      0.653580000000     0.712960000000     0.534040000000     0.0475152  
H258     H      0.654020000000     0.785350000000     0.964030000000     0.106105   
H259     H      0.783990000000     0.902570000000     0.961660000000     0.0454204  
H260     H      0.783210000000     0.845160000000     0.960630000000     0.0521863  
H261     H      0.716400000000     0.844780000000     0.536030000000     0.105541   
H262     H      0.783830000000     0.594730000000     0.535780000000     0.0429105  
H263     H      0.782940000000     0.652130000000     0.536990000000     0.0534578  
H264     H      0.715840000000     0.652610000000     0.461850000000     0.104681   
H265     H      0.712920000000     0.466460000000     0.844680000000     0.0457402  
H266     H      0.711480000000     0.467180000000     0.901930000000     0.0546082  
H267     H      0.784970000000     0.036050000000     0.902970000000     0.109934   
H268     H      0.714120000000     0.532630000000     0.595040000000     0.0410437  
H269     H      0.715430000000     0.533770000000     0.652260000000     0.0463671  
H270     H      0.780540000000     0.956930000000     0.652550000000     0.104108   
H271     H      0.966840000000     0.712170000000     0.903130000000     0.0430616  
H272     H      0.964410000000     0.713940000000     0.845730000000     0.0508176  
H273     H      0.534210000000     0.786530000000     0.845040000000     0.107667   
H274     H      0.530310000000     0.709180000000     0.653310000000     0.0443105  
H275     H      0.529220000000     0.707980000000     0.595810000000     0.0471518  
H276     H      0.469220000000     0.788860000000     0.595350000000     0.101713   
H277     H      0.595040000000     0.537650000000     0.717200000000     0.0385449  
H278     H      0.652520000000     0.539300000000     0.718920000000     0.0455108  
H279     H      0.653000000000     0.958100000000     0.778480000000     0.101253   
H280     H      0.845100000000     0.530470000000     0.709780000000     0.0426899  
H281     H      0.902600000000     0.528770000000     0.708270000000     0.0503494  
H282     H      0.902930000000     0.969940000000     0.790000000000     0.121665   
H283     H      0.532930000000     0.902830000000     0.710370000000     0.04777    
H284     H      0.034860000000     0.845300000000     0.712440000000     0.056232   
H285     H      0.961000000000     0.845450000000     0.780940000000     0.108275   
H286     H      0.532220000000     0.653250000000     0.788400000000     0.0412751  
H287     H      0.530590000000     0.595680000000     0.790370000000     0.0494938  
H288     H      0.966170000000     0.595160000000     0.712940000000     0.100263   
N1       N      0.407590000000     0.248690000000     0.998940000000    -0.161301   
N2       N      0.342150000000     0.248270000000     0.998780000000    -0.231652   
N3       N      0.157770000000     0.249170000000     0.999060000000    -0.159396   
N4       N      0.092320000000     0.249560000000     0.999100000000    -0.232435   
N5       N      0.249810000000     0.340920000000     0.498320000000    -0.155992   
N6       N      0.248940000000     0.406430000000     0.497860000000    -0.227069   
N7       N      0.249390000000     0.156420000000     0.499440000000    -0.155309   
N8       N      0.248680000000     0.090900000000     0.999690000000    -0.23041    
N9       N      0.248330000000     0.501460000000     0.406470000000    -0.154364   
N10      N      0.248240000000     0.502430000000     0.340970000000    -0.227303   
N11      N      0.248170000000     0.495470000000     0.156410000000    -0.157204   
N12      N      0.248480000000     0.995810000000     0.090910000000    -0.227819   
N13      N      0.499200000000     0.250330000000     0.341420000000    -0.156581   
N14      N      0.500080000000     0.250020000000     0.406860000000    -0.228456   
N15      N      0.999250000000     0.248430000000     0.091610000000    -0.158952   
N16      N      0.498400000000     0.248160000000     0.157060000000    -0.228006   
N17      N      0.156700000000     0.998750000000     0.248740000000    -0.158821   
N18      N      0.091290000000     0.998530000000     0.248920000000    -0.230846   
N19      N      0.406700000000     0.499310000000     0.249100000000    -0.154588   
N20      N      0.341280000000     0.999090000000     0.249170000000    -0.22978    
N21      N      0.998130000000     0.341330000000     0.246920000000    -0.156125   
N22      N      0.497590000000     0.406830000000     0.246230000000    -0.227039   
N23      N      0.998430000000     0.091410000000     0.251670000000    -0.159233   
N24      N      0.998450000000     0.156900000000     0.250980000000    -0.231633   
N25      N      0.407590000000     0.248690000000     0.498940000000    -0.157352   
N26      N      0.342150000000     0.248270000000     0.498780000000    -0.229058   
N27      N      0.157770000000     0.249170000000     0.499070000000    -0.156823   
N28      N      0.092320000000     0.249560000000     0.499100000000    -0.228499   
N29      N      0.249810000000     0.340920000000     0.998320000000    -0.158765   
N30      N      0.248940000000     0.406430000000     0.997860000000    -0.229352   
N31      N      0.249390000000     0.156420000000     0.999440000000    -0.158036   
N32      N      0.248680000000     0.090900000000     0.499690000000    -0.228047   
N33      N      0.248330000000     0.501460000000     0.906470000000    -0.154257   
N34      N      0.248240000000     0.502430000000     0.840970000000    -0.227316   
N35      N      0.248170000000     0.495470000000     0.656410000000    -0.157226   
N36      N      0.248480000000     0.995810000000     0.590910000000    -0.228491   
N37      N      0.499200000000     0.250330000000     0.841420000000    -0.156602   
N38      N      0.500080000000     0.250020000000     0.906860000000    -0.228406   
N39      N      0.999250000000     0.248430000000     0.591610000000    -0.159523   
N40      N      0.498400000000     0.248160000000     0.657060000000    -0.228038   
N41      N      0.156700000000     0.998750000000     0.748740000000    -0.158847   
N42      N      0.091290000000     0.998530000000     0.748920000000    -0.23089    
N43      N      0.406700000000     0.499310000000     0.749100000000    -0.154616   
N44      N      0.341280000000     0.999090000000     0.749170000000    -0.229811   
N45      N      0.998130000000     0.341330000000     0.746920000000    -0.156148   
N46      N      0.497590000000     0.406830000000     0.746230000000    -0.227028   
N47      N      0.998430000000     0.091410000000     0.751670000000    -0.159273   
N48      N      0.998450000000     0.156900000000     0.750980000000    -0.231646   
N49      N      0.407590000000     0.748690000000     0.998940000000    -0.161325   
N50      N      0.342150000000     0.748270000000     0.998780000000    -0.231664   
N51      N      0.157770000000     0.749170000000     0.999060000000    -0.1594     
N52      N      0.092320000000     0.749560000000     0.999100000000    -0.232464   
N53      N      0.249810000000     0.840920000000     0.498320000000    -0.155906   
N54      N      0.248940000000     0.906430000000     0.497860000000    -0.227045   
N55      N      0.249390000000     0.656420000000     0.499440000000    -0.155307   
N56      N      0.248680000000     0.590900000000     0.999690000000    -0.230733   
N57      N      0.248330000000     0.001460000000     0.406470000000    -0.152874   
N58      N      0.248240000000     0.002430000000     0.340970000000    -0.225977   
N59      N      0.248170000000     0.995460000000     0.156410000000    -0.158459   
N60      N      0.248480000000     0.495810000000     0.090910000000    -0.226694   
N61      N      0.499200000000     0.750320000000     0.341420000000    -0.156601   
N62      N      0.500080000000     0.750020000000     0.406860000000    -0.228509   
N63      N      0.999250000000     0.748430000000     0.091610000000    -0.158909   
N64      N      0.498400000000     0.748160000000     0.157060000000    -0.228017   
N65      N      0.156700000000     0.498750000000     0.248740000000    -0.157543   
N66      N      0.091290000000     0.498530000000     0.248920000000    -0.229576   
N67      N      0.406700000000     0.999310000000     0.249100000000    -0.156576   
N68      N      0.341280000000     0.499090000000     0.249170000000    -0.228555   
N69      N      0.998130000000     0.841330000000     0.246920000000    -0.156046   
N70      N      0.497590000000     0.906830000000     0.246230000000    -0.227166   
N71      N      0.998430000000     0.591410000000     0.251670000000    -0.159358   
N72      N      0.998450000000     0.656900000000     0.250980000000    -0.23165    
N73      N      0.407590000000     0.748690000000     0.498940000000    -0.157372   
N74      N      0.342150000000     0.748270000000     0.498780000000    -0.229068   
N75      N      0.157770000000     0.749170000000     0.499070000000    -0.156823   
N76      N      0.092320000000     0.749560000000     0.499100000000    -0.228522   
N77      N      0.249810000000     0.840920000000     0.998320000000    -0.158677   
N78      N      0.248940000000     0.906430000000     0.997860000000    -0.229328   
N79      N      0.249390000000     0.656420000000     0.999440000000    -0.158043   
N80      N      0.248680000000     0.590900000000     0.499690000000    -0.228363   
N81      N      0.248330000000     0.001460000000     0.906470000000    -0.152765   
N82      N      0.248240000000     0.002430000000     0.840970000000    -0.225988   
N83      N      0.248170000000     0.995460000000     0.656410000000    -0.158488   
N84      N      0.248480000000     0.495810000000     0.590910000000    -0.227363   
N85      N      0.499200000000     0.750320000000     0.841420000000    -0.156622   
N86      N      0.500080000000     0.750020000000     0.906860000000    -0.22846    
N87      N      0.999250000000     0.748430000000     0.591610000000    -0.159481   
N88      N      0.498400000000     0.748160000000     0.657060000000    -0.228049   
N89      N      0.156700000000     0.498750000000     0.748740000000    -0.157566   
N90      N      0.091290000000     0.498530000000     0.748920000000    -0.229617   
N91      N      0.406700000000     0.999310000000     0.749100000000    -0.15661    
N92      N      0.341280000000     0.499090000000     0.749170000000    -0.228582   
N93      N      0.998130000000     0.841330000000     0.746920000000    -0.156068   
N94      N      0.497590000000     0.906830000000     0.746230000000    -0.227155   
N95      N      0.998430000000     0.591410000000     0.751670000000    -0.159399   
N96      N      0.998450000000     0.656900000000     0.750980000000    -0.231663   
N97      N      0.907590000000     0.248690000000     0.998940000000    -0.161503   
N98      N      0.842150000000     0.248270000000     0.998780000000    -0.231669   
N99      N      0.657770000000     0.249170000000     0.999060000000    -0.159436   
N100     N      0.592320000000     0.249560000000     0.999100000000    -0.232652   
N101     N      0.749810000000     0.340920000000     0.498320000000    -0.156045   
N102     N      0.748950000000     0.406430000000     0.497860000000    -0.227012   
N103     N      0.749390000000     0.156420000000     0.499440000000    -0.155327   
N104     N      0.748670000000     0.090900000000     0.999690000000    -0.230465   
N105     N      0.748330000000     0.501460000000     0.406470000000    -0.154392   
N106     N      0.748240000000     0.502430000000     0.340970000000    -0.227317   
N107     N      0.748170000000     0.495470000000     0.156410000000    -0.157224   
N108     N      0.748480000000     0.995810000000     0.090910000000    -0.227852   
N109     N      0.999200000000     0.250330000000     0.341420000000    -0.159537   
N110     N      0.000080000000     0.250020000000     0.406860000000    -0.225417   
N111     N      0.499250000000     0.248430000000     0.091610000000    -0.156682   
N112     N      0.998410000000     0.248160000000     0.157060000000    -0.230209   
N113     N      0.656700000000     0.998750000000     0.248740000000    -0.158834   
N114     N      0.591290000000     0.998530000000     0.248920000000    -0.231285   
N115     N      0.906700000000     0.499310000000     0.249100000000    -0.154476   
N116     N      0.841280000000     0.999090000000     0.249170000000    -0.229719   
N117     N      0.498130000000     0.341330000000     0.246920000000    -0.153886   
N118     N      0.997590000000     0.406830000000     0.246230000000    -0.229011   
N119     N      0.498430000000     0.091410000000     0.251670000000    -0.15725    
N120     N      0.498450000000     0.156900000000     0.250980000000    -0.229391   
N121     N      0.907590000000     0.248690000000     0.498940000000    -0.157564   
N122     N      0.842150000000     0.248270000000     0.498780000000    -0.22908    
N123     N      0.657770000000     0.249170000000     0.499070000000    -0.156861   
N124     N      0.592320000000     0.249560000000     0.499100000000    -0.228711   
N125     N      0.749810000000     0.340920000000     0.998320000000    -0.158819   
N126     N      0.748950000000     0.406430000000     0.997860000000    -0.229292   
N127     N      0.749390000000     0.156420000000     0.999440000000    -0.158054   
N128     N      0.748670000000     0.090900000000     0.499690000000    -0.228106   
N129     N      0.748330000000     0.501460000000     0.906470000000    -0.154285   
N130     N      0.748240000000     0.502430000000     0.840970000000    -0.22733    
N131     N      0.748170000000     0.495470000000     0.656410000000    -0.157246   
N132     N      0.748480000000     0.995810000000     0.590910000000    -0.228523   
N133     N      0.999200000000     0.250330000000     0.841420000000    -0.159552   
N134     N      0.000080000000     0.250020000000     0.906860000000    -0.225372   
N135     N      0.499250000000     0.248430000000     0.591610000000    -0.157253   
N136     N      0.998410000000     0.248160000000     0.657060000000    -0.230243   
N137     N      0.656700000000     0.998750000000     0.748740000000    -0.15886    
N138     N      0.591290000000     0.998530000000     0.748920000000    -0.231329   
N139     N      0.906700000000     0.499310000000     0.749100000000    -0.154504   
N140     N      0.841280000000     0.999090000000     0.749170000000    -0.22975    
N141     N      0.498130000000     0.341330000000     0.746920000000    -0.15391    
N142     N      0.997590000000     0.406830000000     0.746230000000    -0.228999   
N143     N      0.498430000000     0.091410000000     0.751670000000    -0.157292   
N144     N      0.498450000000     0.156900000000     0.750980000000    -0.229406   
N145     N      0.907590000000     0.748690000000     0.998940000000    -0.161527   
N146     N      0.842150000000     0.748270000000     0.998780000000    -0.231681   
N147     N      0.657770000000     0.749170000000     0.999060000000    -0.159439   
N148     N      0.592320000000     0.749560000000     0.999100000000    -0.23268    
N149     N      0.749810000000     0.840920000000     0.498320000000    -0.155959   
N150     N      0.748950000000     0.906430000000     0.497860000000    -0.226988   
N151     N      0.749390000000     0.656420000000     0.499440000000    -0.155326   
N152     N      0.748670000000     0.590900000000     0.999690000000    -0.230788   
N153     N      0.748330000000     0.001460000000     0.406470000000    -0.152901   
N154     N      0.748240000000     0.002430000000     0.340970000000    -0.225992   
N155     N      0.748170000000     0.995460000000     0.156410000000    -0.158478   
N156     N      0.748480000000     0.495810000000     0.090910000000    -0.226729   
N157     N      0.999200000000     0.750320000000     0.341420000000    -0.159552   
N158     N      0.000080000000     0.750020000000     0.406860000000    -0.225472   
N159     N      0.499250000000     0.748430000000     0.091610000000    -0.15664    
N160     N      0.998410000000     0.748160000000     0.157060000000    -0.23022    
N161     N      0.656700000000     0.498750000000     0.248740000000    -0.157557   
N162     N      0.591290000000     0.498530000000     0.248920000000    -0.230016   
N163     N      0.906700000000     0.999310000000     0.249100000000    -0.156459   
N164     N      0.841280000000     0.499090000000     0.249170000000    -0.228498   
N165     N      0.498130000000     0.841330000000     0.246920000000    -0.153811   
N166     N      0.997590000000     0.906830000000     0.246230000000    -0.229133   
N167     N      0.498430000000     0.591410000000     0.251670000000    -0.157374   
N168     N      0.498450000000     0.656900000000     0.250980000000    -0.229406   
N169     N      0.907590000000     0.748690000000     0.498940000000    -0.157584   
N170     N      0.842150000000     0.748270000000     0.498780000000    -0.22909    
N171     N      0.657770000000     0.749170000000     0.499070000000    -0.15686    
N172     N      0.592320000000     0.749560000000     0.499100000000    -0.228734   
N173     N      0.749810000000     0.840920000000     0.998320000000    -0.158731   
N174     N      0.748950000000     0.906430000000     0.997860000000    -0.229268   
N175     N      0.749390000000     0.656420000000     0.999440000000    -0.15806    
N176     N      0.748670000000     0.590900000000     0.499690000000    -0.228422   
N177     N      0.748330000000     0.001460000000     0.906470000000    -0.152792   
N178     N      0.748240000000     0.002430000000     0.840970000000    -0.226002   
N179     N      0.748170000000     0.995460000000     0.656410000000    -0.158507   
N180     N      0.748480000000     0.495810000000     0.590910000000    -0.227397   
N181     N      0.999200000000     0.750320000000     0.841420000000    -0.159567   
N182     N      0.000080000000     0.750020000000     0.906860000000    -0.225427   
N183     N      0.499250000000     0.748430000000     0.591610000000    -0.157211   
N184     N      0.998410000000     0.748160000000     0.657060000000    -0.230254   
N185     N      0.656700000000     0.498750000000     0.748740000000    -0.157579   
N186     N      0.591290000000     0.498530000000     0.748920000000    -0.230057   
N187     N      0.906700000000     0.999310000000     0.749100000000    -0.156493   
N188     N      0.841280000000     0.499090000000     0.749170000000    -0.228525   
N189     N      0.498130000000     0.841330000000     0.746920000000    -0.153834   
N190     N      0.997590000000     0.906830000000     0.746230000000    -0.229122   
N191     N      0.498430000000     0.591410000000     0.751670000000    -0.157417   
N192     N      0.498450000000     0.656900000000     0.750980000000    -0.22942    
Ni1      Ni     0.499040000000     0.497830000000     0.277050000000     1.03986    
Ni2      Ni     0.499020000000     0.000370000000     0.220940000000     1.03133    
Ni3      Ni     0.026490000000     0.249130000000     0.249090000000     1.01042    
Ni4      Ni     0.470750000000     0.249080000000     0.249360000000     1.03674    
Ni5      Ni     0.249050000000     0.470910000000     0.250230000000     1.03237    
Ni6      Ni     0.248980000000     0.026970000000     0.247170000000     1.02879    
Ni7      Ni     0.220800000000     0.998620000000     0.998730000000     1.01544    
Ni8      Ni     0.276570000000     0.498690000000     0.998670000000     1.00388    
Ni9      Ni     0.000110000000     0.221030000000     0.998980000000     1.03419    
Ni10     Ni     0.999840000000     0.277330000000     0.499450000000     1.02277    
Ni11     Ni     0.250020000000     0.248810000000     0.026780000000     1.0157     
Ni12     Ni     0.249930000000     0.248540000000     0.471020000000     1.02294    
Ni13     Ni     0.499040000000     0.497830000000     0.777050000000     1.03966    
Ni14     Ni     0.499020000000     0.000370000000     0.720940000000     1.03083    
Ni15     Ni     0.026490000000     0.249130000000     0.749090000000     1.01036    
Ni16     Ni     0.470750000000     0.249080000000     0.749360000000     1.03668    
Ni17     Ni     0.249050000000     0.470910000000     0.750230000000     1.03234    
Ni18     Ni     0.248980000000     0.026970000000     0.747170000000     1.02874    
Ni19     Ni     0.220800000000     0.998620000000     0.498730000000     1.03051    
Ni20     Ni     0.276570000000     0.498690000000     0.498670000000     1.01883    
Ni21     Ni     0.000110000000     0.221030000000     0.498980000000     1.04183    
Ni22     Ni     0.999840000000     0.277330000000     0.999450000000     1.01521    
Ni23     Ni     0.250020000000     0.248810000000     0.526780000000     1.0107     
Ni24     Ni     0.249930000000     0.248540000000     0.971020000000     1.01342    
Ni25     Ni     0.499040000000     0.997830000000     0.277050000000     1.03116    
Ni26     Ni     0.499020000000     0.500370000000     0.220940000000     1.01994    
Ni27     Ni     0.026490000000     0.749130000000     0.249090000000     1.0104     
Ni28     Ni     0.470750000000     0.749080000000     0.249360000000     1.03671    
Ni29     Ni     0.249050000000     0.970910000000     0.250230000000     1.02856    
Ni30     Ni     0.248980000000     0.526970000000     0.247170000000     1.02603    
Ni31     Ni     0.220800000000     0.498620000000     0.998730000000     1.02189    
Ni32     Ni     0.276570000000     0.998690000000     0.998670000000     0.997495   
Ni33     Ni     0.000110000000     0.721030000000     0.998980000000     1.03394    
Ni34     Ni     0.999840000000     0.777330000000     0.499450000000     1.02264    
Ni35     Ni     0.250020000000     0.748810000000     0.026780000000     1.01566    
Ni36     Ni     0.249930000000     0.748540000000     0.471020000000     1.02294    
Ni37     Ni     0.499040000000     0.997830000000     0.777050000000     1.03094    
Ni38     Ni     0.499020000000     0.500370000000     0.720940000000     1.0194     
Ni39     Ni     0.026490000000     0.749130000000     0.749090000000     1.01034    
Ni40     Ni     0.470750000000     0.749080000000     0.749360000000     1.03666    
Ni41     Ni     0.249050000000     0.970910000000     0.750230000000     1.02851    
Ni42     Ni     0.248980000000     0.526970000000     0.747170000000     1.02596    
Ni43     Ni     0.220800000000     0.498620000000     0.498730000000     1.03703    
Ni44     Ni     0.276570000000     0.998690000000     0.498670000000     1.01239    
Ni45     Ni     0.000110000000     0.721030000000     0.498980000000     1.04159    
Ni46     Ni     0.999840000000     0.777330000000     0.999450000000     1.01508    
Ni47     Ni     0.250020000000     0.748810000000     0.526780000000     1.01065    
Ni48     Ni     0.249930000000     0.748540000000     0.971020000000     1.01341    
Ni49     Ni     0.999040000000     0.497830000000     0.277050000000     1.02722    
Ni50     Ni     0.999020000000     0.000370000000     0.220940000000     1.01872    
Ni51     Ni     0.526490000000     0.249130000000     0.249090000000     1.00631    
Ni52     Ni     0.970750000000     0.249080000000     0.249360000000     1.02864    
Ni53     Ni     0.749050000000     0.470910000000     0.250230000000     1.03233    
Ni54     Ni     0.748980000000     0.026970000000     0.247170000000     1.02874    
Ni55     Ni     0.720800000000     0.998620000000     0.998730000000     1.01509    
Ni56     Ni     0.776570000000     0.498690000000     0.998670000000     1.00369    
Ni57     Ni     0.500110000000     0.221030000000     0.998980000000     1.01259    
Ni58     Ni     0.499840000000     0.277330000000     0.499450000000     1.04412    
Ni59     Ni     0.750020000000     0.248810000000     0.026780000000     1.01564    
Ni60     Ni     0.749930000000     0.248540000000     0.471020000000     1.02289    
Ni61     Ni     0.999040000000     0.497830000000     0.777050000000     1.02704    
Ni62     Ni     0.999020000000     0.000370000000     0.720940000000     1.01823    
Ni63     Ni     0.526490000000     0.249130000000     0.749090000000     1.00625    
Ni64     Ni     0.970750000000     0.249080000000     0.749360000000     1.02859    
Ni65     Ni     0.749050000000     0.470910000000     0.750230000000     1.03229    
Ni66     Ni     0.748980000000     0.026970000000     0.747170000000     1.02869    
Ni67     Ni     0.720800000000     0.998620000000     0.498730000000     1.03017    
Ni68     Ni     0.776570000000     0.498690000000     0.498670000000     1.01863    
Ni69     Ni     0.500110000000     0.221030000000     0.498980000000     1.02019    
Ni70     Ni     0.499840000000     0.277330000000     0.999450000000     1.03645    
Ni71     Ni     0.750020000000     0.248810000000     0.526780000000     1.01064    
Ni72     Ni     0.749930000000     0.248540000000     0.971020000000     1.01338    
Ni73     Ni     0.999040000000     0.997830000000     0.277050000000     1.0186     
Ni74     Ni     0.999020000000     0.500370000000     0.220940000000     1.00733    
Ni75     Ni     0.526490000000     0.749130000000     0.249090000000     1.00629    
Ni76     Ni     0.970750000000     0.749080000000     0.249360000000     1.02862    
Ni77     Ni     0.749050000000     0.970910000000     0.250230000000     1.02852    
Ni78     Ni     0.748980000000     0.526970000000     0.247170000000     1.02598    
Ni79     Ni     0.720800000000     0.498620000000     0.998730000000     1.02154    
Ni80     Ni     0.776570000000     0.998690000000     0.998670000000     0.99732    
Ni81     Ni     0.500110000000     0.721030000000     0.998980000000     1.01234    
Ni82     Ni     0.499840000000     0.777330000000     0.499450000000     1.04397    
Ni83     Ni     0.750020000000     0.748810000000     0.026780000000     1.0156     
Ni84     Ni     0.749930000000     0.748540000000     0.471020000000     1.02289    
Ni85     Ni     0.999040000000     0.997830000000     0.777050000000     1.0184     
Ni86     Ni     0.999020000000     0.500370000000     0.720940000000     1.00679    
Ni87     Ni     0.526490000000     0.749130000000     0.749090000000     1.00623    
Ni88     Ni     0.970750000000     0.749080000000     0.749360000000     1.02857    
Ni89     Ni     0.749050000000     0.970910000000     0.750230000000     1.02847    
Ni90     Ni     0.748980000000     0.526970000000     0.747170000000     1.02591    
Ni91     Ni     0.720800000000     0.498620000000     0.498730000000     1.03667    
Ni92     Ni     0.776570000000     0.998690000000     0.498670000000     1.0122     
Ni93     Ni     0.500110000000     0.721030000000     0.498980000000     1.01995    
Ni94     Ni     0.499840000000     0.777330000000     0.999450000000     1.03631    
Ni95     Ni     0.750020000000     0.748810000000     0.526780000000     1.0106     
Ni96     Ni     0.749930000000     0.748540000000     0.971020000000     1.01337    
O1       O      0.995860000000     0.453110000000     0.273630000000    -0.402003   
O2       O      0.502100000000     0.043300000000     0.276570000000    -0.433788   
O3       O      0.453900000000     0.499810000000     0.275340000000    -0.42682    
O4       O      0.044140000000     0.994730000000     0.274930000000    -0.407988   
O5       O      0.044160000000     0.503020000000     0.223010000000    -0.441442   
O6       O      0.453840000000     0.998800000000     0.222720000000    -0.440154   
O7       O      0.996270000000     0.045090000000     0.224350000000    -0.44097    
O8       O      0.501640000000     0.454890000000     0.221410000000    -0.439294   
O9       O      0.024220000000     0.243150000000     0.204240000000    -0.436644   
O10      O      0.024620000000     0.255110000000     0.293960000000    -0.427586   
O11      O      0.024440000000     0.204190000000     0.255150000000    -0.437208   
O12      O      0.024290000000     0.294050000000     0.243030000000    -0.426109   
O13      O      0.472770000000     0.294050000000     0.253270000000    -0.427913   
O14      O      0.472820000000     0.204120000000     0.245380000000    -0.41133    
O15      O      0.473070000000     0.244990000000     0.294400000000    -0.437467   
O16      O      0.472640000000     0.253180000000     0.204310000000    -0.403044   
O17      O      0.294150000000     0.473090000000     0.253180000000    -0.411483   
O18      O      0.203910000000     0.472560000000     0.248370000000    -0.437845   
O19      O      0.251960000000     0.471000000000     0.204730000000    -0.433096   
O20      O      0.246010000000     0.474710000000     0.294930000000    -0.439309   
O21      O      0.251830000000     0.026900000000     0.292650000000    -0.407493   
O22      O      0.246020000000     0.023180000000     0.202480000000    -0.442687   
O23      O      0.203810000000     0.025170000000     0.248960000000    -0.437494   
O24      O      0.294130000000     0.024910000000     0.244360000000    -0.43352    
O25      O      0.222790000000     0.043650000000     0.494960000000    -0.409123   
O26      O      0.222930000000     0.453610000000     0.002500000000    -0.395257   
O27      O      0.222900000000     0.002220000000     0.043760000000    -0.426276   
O28      O      0.222810000000     0.495020000000     0.453680000000    -0.430719   
O29      O      0.274420000000     0.004800000000     0.453780000000    -0.428248   
O30      O      0.274540000000     0.492560000000     0.043560000000    -0.402119   
O31      O      0.274550000000     0.453810000000     0.492770000000    -0.434796   
O32      O      0.274430000000     0.043580000000     0.004590000000    -0.426219   
O33      O      0.500550000000     0.222490000000     0.044220000000    -0.434486   
O34      O      0.999610000000     0.223320000000     0.453780000000    -0.45593    
O35      O      0.045290000000     0.223100000000     0.999720000000    -0.448697   
O36      O      0.454920000000     0.222670000000     0.498260000000    -0.438592   
O37      O      0.454640000000     0.275240000000     0.999920000000    -0.441435   
O38      O      0.045050000000     0.275690000000     0.498920000000    -0.399658   
O39      O      0.500570000000     0.275900000000     0.454250000000    -0.404706   
O40      O      0.999090000000     0.275060000000     0.044620000000    -0.43067    
O41      O      0.254780000000     0.203810000000     0.024970000000    -0.429804   
O42      O      0.245230000000     0.293760000000     0.024420000000    -0.427096   
O43      O      0.205020000000     0.243980000000     0.024800000000    -0.43102    
O44      O      0.294990000000     0.253610000000     0.024600000000    -0.435695   
O45      O      0.294870000000     0.243380000000     0.473050000000    -0.40976    
O46      O      0.204990000000     0.253730000000     0.473160000000    -0.433297   
O47      O      0.255020000000     0.293500000000     0.472810000000    -0.436577   
O48      O      0.244820000000     0.203620000000     0.473390000000    -0.426031   
O49      O      0.995860000000     0.453110000000     0.773640000000    -0.401899   
O50      O      0.502100000000     0.043300000000     0.776570000000    -0.433877   
O51      O      0.453900000000     0.499810000000     0.775340000000    -0.426913   
O52      O      0.044140000000     0.994730000000     0.774930000000    -0.408078   
O53      O      0.044160000000     0.503020000000     0.723010000000    -0.441618   
O54      O      0.453840000000     0.998800000000     0.722720000000    -0.440336   
O55      O      0.996270000000     0.045090000000     0.724350000000    -0.441124   
O56      O      0.501640000000     0.454890000000     0.721410000000    -0.439421   
O57      O      0.024220000000     0.243150000000     0.704240000000    -0.43674    
O58      O      0.024620000000     0.255110000000     0.793960000000    -0.427616   
O59      O      0.024440000000     0.204190000000     0.755150000000    -0.437257   
O60      O      0.024290000000     0.294050000000     0.743030000000    -0.426165   
O61      O      0.472770000000     0.294050000000     0.753270000000    -0.427957   
O62      O      0.472820000000     0.204120000000     0.745380000000    -0.411376   
O63      O      0.473070000000     0.244990000000     0.794400000000    -0.437493   
O64      O      0.472640000000     0.253180000000     0.704310000000    -0.403131   
O65      O      0.294150000000     0.473090000000     0.753180000000    -0.411552   
O66      O      0.203910000000     0.472560000000     0.748370000000    -0.437901   
O67      O      0.251960000000     0.471000000000     0.704730000000    -0.433175   
O68      O      0.246010000000     0.474710000000     0.794930000000    -0.439339   
O69      O      0.251830000000     0.026900000000     0.792650000000    -0.407522   
O70      O      0.246020000000     0.023180000000     0.702480000000    -0.442758   
O71      O      0.203810000000     0.025170000000     0.748960000000    -0.437526   
O72      O      0.294130000000     0.024910000000     0.744360000000    -0.433549   
O73      O      0.222790000000     0.043650000000     0.994960000000    -0.406075   
O74      O      0.222930000000     0.453610000000     0.502500000000    -0.40846    
O75      O      0.222900000000     0.002220000000     0.543760000000    -0.432814   
O76      O      0.222810000000     0.495020000000     0.953680000000    -0.429114   
O77      O      0.274420000000     0.004800000000     0.953780000000    -0.426698   
O78      O      0.274540000000     0.492560000000     0.543560000000    -0.408684   
O79      O      0.274550000000     0.453810000000     0.992770000000    -0.431758   
O80      O      0.274430000000     0.043580000000     0.504590000000    -0.439307   
O81      O      0.500550000000     0.222490000000     0.544220000000    -0.440619   
O82      O      0.999610000000     0.223320000000     0.953780000000    -0.454815   
O83      O      0.045290000000     0.223100000000     0.499720000000    -0.447227   
O84      O      0.454920000000     0.222670000000     0.998260000000    -0.439227   
O85      O      0.454640000000     0.275240000000     0.499920000000    -0.439906   
O86      O      0.045050000000     0.275690000000     0.998920000000    -0.400345   
O87      O      0.500570000000     0.275900000000     0.954250000000    -0.403622   
O88      O      0.999090000000     0.275060000000     0.544620000000    -0.436766   
O89      O      0.254780000000     0.203810000000     0.524980000000    -0.436531   
O90      O      0.245230000000     0.293760000000     0.524430000000    -0.4338     
O91      O      0.205020000000     0.243980000000     0.524800000000    -0.437919   
O92      O      0.294990000000     0.253610000000     0.524600000000    -0.442607   
O93      O      0.294870000000     0.243380000000     0.973050000000    -0.407349   
O94      O      0.204990000000     0.253730000000     0.973160000000    -0.430906   
O95      O      0.255020000000     0.293500000000     0.972810000000    -0.434281   
O96      O      0.244820000000     0.203620000000     0.973390000000    -0.423711   
O97      O      0.995860000000     0.953110000000     0.273630000000    -0.401273   
O98      O      0.502100000000     0.543300000000     0.276570000000    -0.436877   
O99      O      0.453900000000     0.999810000000     0.275340000000    -0.426882   
O100     O      0.044140000000     0.494720000000     0.274930000000    -0.408929   
O101     O      0.044160000000     0.003030000000     0.223010000000    -0.439006   
O102     O      0.453840000000     0.498800000000     0.222720000000    -0.436345   
O103     O      0.996270000000     0.545090000000     0.224350000000    -0.440265   
O104     O      0.501640000000     0.954890000000     0.221410000000    -0.442325   
O105     O      0.024220000000     0.743150000000     0.204240000000    -0.436666   
O106     O      0.024620000000     0.755110000000     0.293960000000    -0.427612   
O107     O      0.024440000000     0.704190000000     0.255150000000    -0.43724    
O108     O      0.024290000000     0.794050000000     0.243030000000    -0.426209   
O109     O      0.472770000000     0.794050000000     0.253270000000    -0.428012   
O110     O      0.472820000000     0.704120000000     0.245380000000    -0.411369   
O111     O      0.473070000000     0.744990000000     0.294400000000    -0.437493   
O112     O      0.472640000000     0.753180000000     0.204310000000    -0.403065   
O113     O      0.294150000000     0.973090000000     0.253180000000    -0.410538   
O114     O      0.203910000000     0.972560000000     0.248370000000    -0.436957   
O115     O      0.251960000000     0.971000000000     0.204730000000    -0.432166   
O116     O      0.246010000000     0.974710000000     0.294930000000    -0.442103   
O117     O      0.251830000000     0.526900000000     0.292650000000    -0.40685    
O118     O      0.246020000000     0.523180000000     0.202480000000    -0.445737   
O119     O      0.203810000000     0.525170000000     0.248960000000    -0.440676   
O120     O      0.294130000000     0.524910000000     0.244360000000    -0.436673   
O121     O      0.222790000000     0.543650000000     0.494960000000    -0.412035   
O122     O      0.222930000000     0.953610000000     0.002500000000    -0.394632   
O123     O      0.222900000000     0.502220000000     0.043760000000    -0.432322   
O124     O      0.222810000000     0.995020000000     0.453680000000    -0.433203   
O125     O      0.274420000000     0.504800000000     0.453780000000    -0.430514   
O126     O      0.274540000000     0.992560000000     0.043560000000    -0.400837   
O127     O      0.274550000000     0.953810000000     0.492770000000    -0.43427    
O128     O      0.274430000000     0.543580000000     0.004590000000    -0.42915    
O129     O      0.500550000000     0.722490000000     0.044220000000    -0.434477   
O130     O      0.999610000000     0.723320000000     0.453780000000    -0.45601    
O131     O      0.045290000000     0.723100000000     0.999720000000    -0.448773   
O132     O      0.454920000000     0.722670000000     0.498260000000    -0.438666   
O133     O      0.454640000000     0.775240000000     0.999920000000    -0.441481   
O134     O      0.045050000000     0.775690000000     0.498920000000    -0.399709   
O135     O      0.500570000000     0.775900000000     0.454250000000    -0.40474    
O136     O      0.999090000000     0.775070000000     0.044620000000    -0.430544   
O137     O      0.254780000000     0.703810000000     0.024970000000    -0.429822   
O138     O      0.245230000000     0.793760000000     0.024420000000    -0.427185   
O139     O      0.205020000000     0.743980000000     0.024800000000    -0.43101    
O140     O      0.294990000000     0.753610000000     0.024600000000    -0.435689   
O141     O      0.294870000000     0.743380000000     0.473050000000    -0.409806   
O142     O      0.204990000000     0.753730000000     0.473160000000    -0.433341   
O143     O      0.255020000000     0.793500000000     0.472810000000    -0.436672   
O144     O      0.244820000000     0.703620000000     0.473390000000    -0.426064   
O145     O      0.995860000000     0.953110000000     0.773640000000    -0.401167   
O146     O      0.502100000000     0.543300000000     0.776570000000    -0.436974   
O147     O      0.453900000000     0.999810000000     0.775340000000    -0.426974   
O148     O      0.044140000000     0.494720000000     0.774930000000    -0.409024   
O149     O      0.044160000000     0.003030000000     0.723010000000    -0.439173   
O150     O      0.453840000000     0.498800000000     0.722720000000    -0.436516   
O151     O      0.996270000000     0.545090000000     0.724350000000    -0.440417   
O152     O      0.501640000000     0.954890000000     0.721410000000    -0.442462   
O153     O      0.024220000000     0.743150000000     0.704240000000    -0.436761   
O154     O      0.024620000000     0.755110000000     0.793960000000    -0.427642   
O155     O      0.024440000000     0.704190000000     0.755150000000    -0.437288   
O156     O      0.024290000000     0.794050000000     0.743030000000    -0.426265   
O157     O      0.472770000000     0.794050000000     0.753270000000    -0.428056   
O158     O      0.472820000000     0.704120000000     0.745380000000    -0.411414   
O159     O      0.473070000000     0.744990000000     0.794400000000    -0.43752    
O160     O      0.472640000000     0.753180000000     0.704310000000    -0.403153   
O161     O      0.294150000000     0.973090000000     0.753180000000    -0.410605   
O162     O      0.203910000000     0.972560000000     0.748370000000    -0.437011   
O163     O      0.251960000000     0.971000000000     0.704730000000    -0.432242   
O164     O      0.246010000000     0.974710000000     0.794930000000    -0.44214    
O165     O      0.251830000000     0.526900000000     0.792650000000    -0.406878   
O166     O      0.246020000000     0.523180000000     0.702480000000    -0.44582    
O167     O      0.203810000000     0.525170000000     0.748960000000    -0.440716   
O168     O      0.294130000000     0.524910000000     0.744360000000    -0.43671    
O169     O      0.222790000000     0.543650000000     0.994960000000    -0.408975   
O170     O      0.222930000000     0.953610000000     0.502500000000    -0.407816   
O171     O      0.222900000000     0.502220000000     0.543760000000    -0.438916   
O172     O      0.222810000000     0.995020000000     0.953680000000    -0.431607   
O173     O      0.274420000000     0.504800000000     0.953780000000    -0.42896    
O174     O      0.274540000000     0.992560000000     0.543560000000    -0.407382   
O175     O      0.274550000000     0.953810000000     0.992770000000    -0.431241   
O176     O      0.274430000000     0.543580000000     0.504590000000    -0.4423     
O177     O      0.500550000000     0.722490000000     0.544220000000    -0.440621   
O178     O      0.999610000000     0.723320000000     0.953780000000    -0.454894   
O179     O      0.045290000000     0.723100000000     0.499720000000    -0.447301   
O180     O      0.454920000000     0.722670000000     0.998260000000    -0.439302   
O181     O      0.454640000000     0.775240000000     0.499920000000    -0.439952   
O182     O      0.045050000000     0.775690000000     0.998920000000    -0.400397   
O183     O      0.500570000000     0.775900000000     0.954250000000    -0.403655   
O184     O      0.999090000000     0.775070000000     0.544620000000    -0.436645   
O185     O      0.254780000000     0.703810000000     0.524980000000    -0.436565   
O186     O      0.245230000000     0.793760000000     0.524430000000    -0.433896   
O187     O      0.205020000000     0.743980000000     0.524800000000    -0.437919   
O188     O      0.294990000000     0.753610000000     0.524600000000    -0.44261    
O189     O      0.294870000000     0.743380000000     0.973050000000    -0.407393   
O190     O      0.204990000000     0.753730000000     0.973160000000    -0.430947   
O191     O      0.255020000000     0.793500000000     0.972810000000    -0.434372   
O192     O      0.244820000000     0.703620000000     0.973390000000    -0.423741   
O193     O      0.495860000000     0.453110000000     0.273630000000    -0.404468   
O194     O      0.002100000000     0.043300000000     0.276570000000    -0.422819   
O195     O      0.953900000000     0.499810000000     0.275340000000    -0.425506   
O196     O      0.544140000000     0.994730000000     0.274930000000    -0.41351    
O197     O      0.544160000000     0.503020000000     0.223010000000    -0.447016   
O198     O      0.953840000000     0.998800000000     0.222720000000    -0.438825   
O199     O      0.496270000000     0.045090000000     0.224350000000    -0.443431   
O200     O      0.001640000000     0.454890000000     0.221410000000    -0.428226   
O201     O      0.524220000000     0.243150000000     0.204240000000    -0.442428   
O202     O      0.524620000000     0.255110000000     0.293960000000    -0.433318   
O203     O      0.524440000000     0.204190000000     0.255150000000    -0.442946   
O204     O      0.524290000000     0.294050000000     0.243030000000    -0.431874   
O205     O      0.972770000000     0.294050000000     0.253270000000    -0.425929   
O206     O      0.972820000000     0.204120000000     0.245380000000    -0.409343   
O207     O      0.973060000000     0.244990000000     0.294400000000    -0.435402   
O208     O      0.972640000000     0.253180000000     0.204310000000    -0.401038   
O209     O      0.794150000000     0.473090000000     0.253180000000    -0.411505   
O210     O      0.703910000000     0.472560000000     0.248370000000    -0.437912   
O211     O      0.751960000000     0.471000000000     0.204730000000    -0.433143   
O212     O      0.746010000000     0.474710000000     0.294930000000    -0.439341   
O213     O      0.751830000000     0.026900000000     0.292650000000    -0.407535   
O214     O      0.746020000000     0.023180000000     0.202480000000    -0.442726   
O215     O      0.703810000000     0.025170000000     0.248960000000    -0.437558   
O216     O      0.794130000000     0.024910000000     0.244360000000    -0.433561   
O217     O      0.722790000000     0.043650000000     0.494960000000    -0.409237   
O218     O      0.722930000000     0.453610000000     0.002500000000    -0.395382   
O219     O      0.722900000000     0.002220000000     0.043760000000    -0.426405   
O220     O      0.722810000000     0.495020000000     0.453680000000    -0.430845   
O221     O      0.774420000000     0.004800000000     0.453780000000    -0.42835    
O222     O      0.774540000000     0.492560000000     0.043560000000    -0.402218   
O223     O      0.774550000000     0.453810000000     0.492770000000    -0.434874   
O224     O      0.774430000000     0.043580000000     0.004590000000    -0.426345   
O225     O      0.000550000000     0.222490000000     0.044220000000    -0.430182   
O226     O      0.499610000000     0.223320000000     0.453780000000    -0.444696   
O227     O      0.545290000000     0.223100000000     0.999720000000    -0.447261   
O228     O      0.954920000000     0.222670000000     0.498260000000    -0.444177   
O229     O      0.954640000000     0.275240000000     0.999920000000    -0.440012   
O230     O      0.545050000000     0.275690000000     0.498920000000    -0.405268   
O231     O      0.000570000000     0.275900000000     0.454250000000    -0.400051   
O232     O      0.499090000000     0.275060000000     0.044620000000    -0.433179   
O233     O      0.754780000000     0.203810000000     0.024970000000    -0.42985    
O234     O      0.745230000000     0.293760000000     0.024420000000    -0.427148   
O235     O      0.705020000000     0.243980000000     0.024800000000    -0.431088   
O236     O      0.794990000000     0.253610000000     0.024600000000    -0.435744   
O237     O      0.794870000000     0.243380000000     0.473050000000    -0.409802   
O238     O      0.704990000000     0.253730000000     0.473160000000    -0.433352   
O239     O      0.755020000000     0.293500000000     0.472810000000    -0.436621   
O240     O      0.744820000000     0.203620000000     0.473390000000    -0.426071   
O241     O      0.495860000000     0.453110000000     0.773640000000    -0.404362   
O242     O      0.002100000000     0.043300000000     0.776570000000    -0.422914   
O243     O      0.953900000000     0.499810000000     0.775340000000    -0.4256     
O244     O      0.544140000000     0.994730000000     0.774930000000    -0.413596   
O245     O      0.544160000000     0.503020000000     0.723010000000    -0.447193   
O246     O      0.953840000000     0.998800000000     0.722720000000    -0.439008   
O247     O      0.496270000000     0.045090000000     0.724350000000    -0.443584   
O248     O      0.001640000000     0.454890000000     0.721410000000    -0.428352   
O249     O      0.524220000000     0.243150000000     0.704240000000    -0.442525   
O250     O      0.524620000000     0.255110000000     0.793960000000    -0.433342   
O251     O      0.524440000000     0.204190000000     0.755150000000    -0.442992   
O252     O      0.524290000000     0.294050000000     0.743030000000    -0.431929   
O253     O      0.972770000000     0.294050000000     0.753270000000    -0.425973   
O254     O      0.972820000000     0.204120000000     0.745380000000    -0.40939    
O255     O      0.973060000000     0.244990000000     0.794400000000    -0.43543    
O256     O      0.972640000000     0.253180000000     0.704310000000    -0.401126   
O257     O      0.794150000000     0.473090000000     0.753180000000    -0.411574   
O258     O      0.703910000000     0.472560000000     0.748370000000    -0.437969   
O259     O      0.751960000000     0.471000000000     0.704730000000    -0.433222   
O260     O      0.746010000000     0.474710000000     0.794930000000    -0.439372   
O261     O      0.751830000000     0.026900000000     0.792650000000    -0.407565   
O262     O      0.746020000000     0.023180000000     0.702480000000    -0.442797   
O263     O      0.703810000000     0.025170000000     0.748960000000    -0.43759    
O264     O      0.794130000000     0.024910000000     0.744360000000    -0.433589   
O265     O      0.722790000000     0.043650000000     0.994960000000    -0.40619    
O266     O      0.722930000000     0.453610000000     0.502500000000    -0.408587   
O267     O      0.722900000000     0.002220000000     0.543760000000    -0.432945   
O268     O      0.722810000000     0.495020000000     0.953680000000    -0.429241   
O269     O      0.774420000000     0.004800000000     0.953780000000    -0.426801   
O270     O      0.774540000000     0.492560000000     0.543560000000    -0.408778   
O271     O      0.774550000000     0.453810000000     0.992770000000    -0.431835   
O272     O      0.774430000000     0.043580000000     0.504590000000    -0.439426   
O273     O      0.000550000000     0.222490000000     0.544220000000    -0.436291   
O274     O      0.499610000000     0.223320000000     0.953780000000    -0.443612   
O275     O      0.545290000000     0.223100000000     0.499720000000    -0.445785   
O276     O      0.954920000000     0.222670000000     0.998260000000    -0.444791   
O277     O      0.954640000000     0.275240000000     0.499920000000    -0.438481   
O278     O      0.545050000000     0.275690000000     0.998920000000    -0.405936   
O279     O      0.000570000000     0.275900000000     0.954250000000    -0.398986   
O280     O      0.499090000000     0.275060000000     0.544620000000    -0.439306   
O281     O      0.754780000000     0.203810000000     0.524980000000    -0.436575   
O282     O      0.745230000000     0.293760000000     0.524430000000    -0.43385    
O283     O      0.705020000000     0.243980000000     0.524800000000    -0.43799    
O284     O      0.794990000000     0.253610000000     0.524600000000    -0.44265    
O285     O      0.794870000000     0.243380000000     0.973050000000    -0.407394   
O286     O      0.704990000000     0.253730000000     0.973160000000    -0.430961   
O287     O      0.755020000000     0.293500000000     0.972810000000    -0.434326   
O288     O      0.744820000000     0.203620000000     0.973390000000    -0.423752   
O289     O      0.495860000000     0.953110000000     0.273630000000    -0.403726   
O290     O      0.002100000000     0.543300000000     0.276570000000    -0.425866   
O291     O      0.953900000000     0.999810000000     0.275340000000    -0.425572   
O292     O      0.544140000000     0.494720000000     0.274930000000    -0.414478   
O293     O      0.544160000000     0.003030000000     0.223010000000    -0.444559   
O294     O      0.953840000000     0.498800000000     0.222720000000    -0.435026   
O295     O      0.496270000000     0.545090000000     0.224350000000    -0.442732   
O296     O      0.001640000000     0.954890000000     0.221410000000    -0.431284   
O297     O      0.524220000000     0.743150000000     0.204240000000    -0.442448   
O298     O      0.524620000000     0.755110000000     0.293960000000    -0.433341   
O299     O      0.524440000000     0.704190000000     0.255150000000    -0.44298    
O300     O      0.524290000000     0.794050000000     0.243030000000    -0.431969   
O301     O      0.972770000000     0.794050000000     0.253270000000    -0.426027   
O302     O      0.972820000000     0.704120000000     0.245380000000    -0.409382   
O303     O      0.973060000000     0.744990000000     0.294400000000    -0.435429   
O304     O      0.972640000000     0.753180000000     0.204310000000    -0.40106    
O305     O      0.794150000000     0.973090000000     0.253180000000    -0.410562   
O306     O      0.703910000000     0.972560000000     0.248370000000    -0.437025   
O307     O      0.751960000000     0.971000000000     0.204730000000    -0.432214   
O308     O      0.746010000000     0.974710000000     0.294930000000    -0.442134   
O309     O      0.751830000000     0.526900000000     0.292650000000    -0.406892   
O310     O      0.746020000000     0.523180000000     0.202480000000    -0.445774   
O311     O      0.703810000000     0.525170000000     0.248960000000    -0.440739   
O312     O      0.794130000000     0.524910000000     0.244360000000    -0.436709   
O313     O      0.722790000000     0.543650000000     0.494960000000    -0.412149   
O314     O      0.722930000000     0.953610000000     0.002500000000    -0.394758   
O315     O      0.722900000000     0.502220000000     0.043760000000    -0.43245    
O316     O      0.722810000000     0.995020000000     0.453680000000    -0.433327   
O317     O      0.774420000000     0.504800000000     0.453780000000    -0.430614   
O318     O      0.774540000000     0.992560000000     0.043560000000    -0.400935   
O319     O      0.774550000000     0.953810000000     0.492770000000    -0.434349   
O320     O      0.774430000000     0.543580000000     0.004590000000    -0.429272   
O321     O      0.000550000000     0.722490000000     0.044220000000    -0.430174   
O322     O      0.499610000000     0.723320000000     0.453780000000    -0.444778   
O323     O      0.545290000000     0.723100000000     0.999720000000    -0.447337   
O324     O      0.954920000000     0.722670000000     0.498260000000    -0.444251   
O325     O      0.954640000000     0.775240000000     0.999920000000    -0.440059   
O326     O      0.545050000000     0.775690000000     0.498920000000    -0.405315   
O327     O      0.000570000000     0.775900000000     0.454250000000    -0.40009    
O328     O      0.499090000000     0.775070000000     0.044620000000    -0.433052   
O329     O      0.754780000000     0.703810000000     0.024970000000    -0.429869   
O330     O      0.745230000000     0.793760000000     0.024420000000    -0.427237   
O331     O      0.705020000000     0.743980000000     0.024800000000    -0.431078   
O332     O      0.794990000000     0.753610000000     0.024600000000    -0.435739   
O333     O      0.794870000000     0.743380000000     0.473050000000    -0.409849   
O334     O      0.704990000000     0.753730000000     0.473160000000    -0.433396   
O335     O      0.755020000000     0.793500000000     0.472810000000    -0.436716   
O336     O      0.744820000000     0.703620000000     0.473390000000    -0.426104   
O337     O      0.495860000000     0.953110000000     0.773640000000    -0.403618   
O338     O      0.002100000000     0.543300000000     0.776570000000    -0.425968   
O339     O      0.953900000000     0.999810000000     0.775340000000    -0.425665   
O340     O      0.544140000000     0.494720000000     0.774930000000    -0.414569   
O341     O      0.544160000000     0.003030000000     0.723010000000    -0.444727   
O342     O      0.953840000000     0.498800000000     0.722720000000    -0.435197   
O343     O      0.496270000000     0.545090000000     0.724350000000    -0.442883   
O344     O      0.001640000000     0.954890000000     0.721410000000    -0.431421   
O345     O      0.524220000000     0.743150000000     0.704240000000    -0.442545   
O346     O      0.524620000000     0.755110000000     0.793960000000    -0.433365   
O347     O      0.524440000000     0.704190000000     0.755150000000    -0.443026   
O348     O      0.524290000000     0.794050000000     0.743030000000    -0.432024   
O349     O      0.972770000000     0.794050000000     0.753270000000    -0.426072   
O350     O      0.972820000000     0.704120000000     0.745380000000    -0.409429   
O351     O      0.973060000000     0.744990000000     0.794400000000    -0.435458   
O352     O      0.972640000000     0.753180000000     0.704310000000    -0.401148   
O353     O      0.794150000000     0.973090000000     0.753180000000    -0.410628   
O354     O      0.703910000000     0.972560000000     0.748370000000    -0.43708    
O355     O      0.751960000000     0.971000000000     0.704730000000    -0.43229    
O356     O      0.746010000000     0.974710000000     0.794930000000    -0.442171   
O357     O      0.751830000000     0.526900000000     0.792650000000    -0.40692    
O358     O      0.746020000000     0.523180000000     0.702480000000    -0.445857   
O359     O      0.703810000000     0.525170000000     0.748960000000    -0.440779   
O360     O      0.794130000000     0.524910000000     0.744360000000    -0.436746   
O361     O      0.722790000000     0.543650000000     0.994960000000    -0.409089   
O362     O      0.722930000000     0.953610000000     0.502500000000    -0.407943   
O363     O      0.722900000000     0.502220000000     0.543760000000    -0.439045   
O364     O      0.722810000000     0.995020000000     0.953680000000    -0.431731   
O365     O      0.774420000000     0.504800000000     0.953780000000    -0.42906    
O366     O      0.774540000000     0.992560000000     0.543560000000    -0.407476   
O367     O      0.774550000000     0.953810000000     0.992770000000    -0.431319   
O368     O      0.774430000000     0.543580000000     0.504590000000    -0.442416   
O369     O      0.000550000000     0.722490000000     0.544220000000    -0.436293   
O370     O      0.499610000000     0.723320000000     0.953780000000    -0.443692   
O371     O      0.545290000000     0.723100000000     0.499720000000    -0.445859   
O372     O      0.954920000000     0.722670000000     0.998260000000    -0.444867   
O373     O      0.954640000000     0.775240000000     0.499920000000    -0.438528   
O374     O      0.545050000000     0.775690000000     0.998920000000    -0.405983   
O375     O      0.000570000000     0.775900000000     0.954250000000    -0.399024   
O376     O      0.499090000000     0.775070000000     0.544620000000    -0.439184   
O377     O      0.754780000000     0.703810000000     0.524980000000    -0.436608   
O378     O      0.745230000000     0.793760000000     0.524430000000    -0.433946   
O379     O      0.705020000000     0.743980000000     0.524800000000    -0.437989   
O380     O      0.794990000000     0.753610000000     0.524600000000    -0.442652   
O381     O      0.794870000000     0.743380000000     0.973050000000    -0.407437   
O382     O      0.704990000000     0.753730000000     0.973160000000    -0.431002   
O383     O      0.755020000000     0.793500000000     0.972810000000    -0.434417   
O384     O      0.744820000000     0.703620000000     0.973390000000    -0.423781   


