data_structure

_audit_creation_method RASPA-1.0
_audit_creation_date 2023-5-23
_audit_author_name 'Poobodin Mano'

_cell_length_a    44.8269
_cell_length_b    44.8255
_cell_length_c    44.8302
_cell_angle_alpha 89.9992
_cell_angle_beta  89.9994
_cell_angle_gamma 89.9994
_cell_volume      90081.3

_symmetry_cell_setting          triclinic
_symmetry_space_group_name_Hall 'P 1'
_symmetry_space_group_name_H-M  'P 1'
_symmetry_Int_Tables_number     1

_symmetry_equiv_pos_as_xyz 'x,y,z'

loop_
_atom_site_label
_atom_site_type_symbol
_atom_site_fract_x
_atom_site_fract_y
_atom_site_fract_z
_atom_site_charge
C1       C      0.601940000000     0.326550000000     0.992880000000     0.43186    
C2       C      0.716000000000     0.325090000000     0.992280000000     0.431748   
C3       C      0.658270000000     0.268860000000     0.991940000000     0.432026   
C4       C      0.659820000000     0.382910000000     0.993200000000     0.432234   
C5       C      0.381780000000     0.327310000000     0.994090000000     0.432095   
C6       C      0.267740000000     0.329700000000     0.994680000000     0.432246   
C7       C      0.323500000000     0.271390000000     0.994150000000     0.431462   
C8       C      0.326030000000     0.385450000000     0.994720000000     0.43233    
C9       C      0.609180000000     0.660310000000     0.994150000000     0.432214   
C10      C      0.723240000000     0.659830000000     0.993970000000     0.431946   
C11      C      0.666340000000     0.717080000000     0.993710000000     0.432001   
C12      C      0.665860000000     0.603000000000     0.994260000000     0.431954   
C13      C      0.389080000000     0.661840000000     0.995930000000     0.432305   
C14      C      0.275040000000     0.663270000000     0.997230000000     0.431864   
C15      C      0.332800000000     0.719610000000     0.996990000000     0.432017   
C16      C      0.331250000000     0.605550000000     0.996180000000     0.431978   
C17      C      0.661940000000     0.992820000000     0.601410000000     0.432126   
C18      C      0.662890000000     0.992260000000     0.715460000000     0.43171    
C19      C      0.719470000000     0.992670000000     0.657920000000     0.431758   
C20      C      0.605400000000     0.992320000000     0.658940000000     0.431903   
C21      C      0.327340000000     0.995610000000     0.607280000000     0.432132   
C22      C      0.329140000000     0.993770000000     0.721340000000     0.431924   
C23      C      0.271190000000     0.995810000000     0.665280000000     0.431922   
C24      C      0.385270000000     0.993600000000     0.663390000000     0.43232    
C25      C      0.326280000000     0.996780000000     0.387110000000     0.431988   
C26      C      0.325190000000     0.996950000000     0.273060000000     0.431966   
C27      C      0.268700000000     0.997110000000     0.330630000000     0.431878   
C28      C      0.382750000000     0.996470000000     0.329420000000     0.431896   
C29      C      0.660160000000     0.994600000000     0.381320000000     0.432248   
C30      C      0.659620000000     0.995050000000     0.267280000000     0.432034   
C31      C      0.716900000000     0.994900000000     0.324110000000     0.431891   
C32      C      0.602840000000     0.994950000000     0.324670000000     0.432081   
C33      C      0.996410000000     0.662560000000     0.607570000000     0.431848   
C34      C      0.999780000000     0.661750000000     0.721610000000     0.430305   
C35      C      0.998250000000     0.719270000000     0.665090000000     0.43214    
C36      C      0.997990000000     0.605180000000     0.664180000000     0.432347   
C37      C      0.995170000000     0.328660000000     0.603670000000     0.432212   
C38      C      0.994370000000     0.327330000000     0.717740000000     0.432043   
C39      C      0.993590000000     0.270960000000     0.659890000000     0.432027   
C40      C      0.996000000000     0.385020000000     0.661360000000     0.432361   
C41      C      0.993550000000     0.663330000000     0.387400000000     0.431621   
C42      C      0.994150000000     0.662890000000     0.273340000000     0.4317     
C43      C      0.993740000000     0.720120000000     0.330170000000     0.431941   
C44      C      0.993830000000     0.606070000000     0.330440000000     0.432114   
C45      C      0.994400000000     0.328580000000     0.383550000000     0.431926   
C46      C      0.993030000000     0.329260000000     0.269520000000     0.431737   
C47      C      0.993650000000     0.271910000000     0.326180000000     0.431855   
C48      C      0.993760000000     0.385970000000     0.327010000000     0.431973   
C49      C      0.991310000000     0.328050000000     0.050650000000     0.433855   
C50      C      0.992530000000     0.327460000000     0.936570000000     0.434244   
C51      C      0.048920000000     0.329000000000     0.994260000000     0.434076   
C52      C      0.934860000000     0.326460000000     0.992950000000     0.433966   
C53      C      0.000630000000     0.661330000000     0.940410000000     0.436469   
C54      C      0.997710000000     0.661820000000     0.054450000000     0.433905   
C55      C      0.942140000000     0.661060000000     0.996030000000     0.4338     
C56      C      0.056180000000     0.662080000000     0.998700000000     0.433799   
C57      C      0.992620000000     0.053070000000     0.327290000000     0.433796   
C58      C      0.993090000000     0.939010000000     0.328320000000     0.433678   
C59      C      0.049840000000     0.996370000000     0.328710000000     0.434041   
C60      C      0.935790000000     0.995720000000     0.326870000000     0.433815   
C61      C      0.938330000000     0.993850000000     0.660660000000     0.434022   
C62      C      0.052380000000     0.996570000000     0.663570000000     0.433847   
C63      C      0.996720000000     0.938150000000     0.663490000000     0.434345   
C64      C      0.993880000000     0.052190000000     0.660770000000     0.433832   
C65      C      0.662640000000     0.935960000000     0.992030000000     0.433802   
C66      C      0.660380000000     0.050010000000     0.990770000000     0.433728   
C67      C      0.661990000000     0.992360000000     0.934330000000     0.43371    
C68      C      0.660990000000     0.993680000000     0.048390000000     0.433975   
C69      C      0.325650000000     0.052520000000     0.996020000000     0.433627   
C70      C      0.329250000000     0.938470000000     0.998060000000     0.433862   
C71      C      0.326650000000     0.996450000000     0.054160000000     0.433846   
C72      C      0.328240000000     0.994390000000     0.940090000000     0.434152   
C73      C      0.998110000000     0.130490000000     0.352980000000    -0.0905424  
C74      C      0.993160000000     0.146060000000     0.326470000000     0.0362956  
C75      C      0.987950000000     0.130100000000     0.300240000000    -0.0886232  
C76      C      0.988150000000     0.098940000000     0.300830000000     0.0724087  
C77      C      0.997460000000     0.099340000000     0.352950000000     0.0704957  
C78      C      0.993350000000     0.178920000000     0.326210000000     0.0314991  
C79      C      0.967100000000     0.194770000000     0.320790000000    -0.0868484  
C80      C      0.967530000000     0.225920000000     0.321150000000     0.0713986  
C81      C      0.019550000000     0.225750000000     0.331000000000     0.0733572  
C82      C      0.019740000000     0.194590000000     0.331500000000    -0.0848068  
C83      C      0.997060000000     0.302300000000     0.128040000000    -0.0906301  
C84      C      0.991470000000     0.328660000000     0.143650000000     0.036385   
C85      C      0.985630000000     0.354790000000     0.127720000000    -0.088647   
C86      C      0.985940000000     0.354260000000     0.096570000000     0.0724973  
C87      C      0.996460000000     0.302380000000     0.096890000000     0.0706483  
C88      C      0.991870000000     0.328940000000     0.176530000000     0.0315091  
C89      C      0.965860000000     0.334890000000     0.192600000000    -0.0867442  
C90      C      0.966550000000     0.334610000000     0.223750000000     0.0713399  
C91      C      0.018380000000     0.323830000000     0.223150000000     0.0734754  
C92      C      0.018290000000     0.323200000000     0.192000000000    -0.0848566  
C93      C      0.967920000000     0.463060000000     0.335360000000    -0.0860434  
C94      C      0.993840000000     0.479330000000     0.328680000000     0.0326725  
C95      C      0.019730000000     0.463280000000     0.321390000000    -0.0839875  
C96      C      0.019410000000     0.432130000000     0.321310000000     0.0737503  
C97      C      0.968180000000     0.431940000000     0.334230000000     0.0718182  
C98      C      0.993840000000     0.512700000000     0.329270000000     0.0326487  
C99      C      0.967880000000     0.528950000000     0.322740000000    -0.086041   
C100     C      0.968170000000     0.560080000000     0.323730000000     0.0718289  
C101     C      0.019490000000     0.559920000000     0.336270000000     0.0737431  
C102     C      0.019800000000     0.528760000000     0.336320000000    -0.0839357  
C103     C      0.967350000000     0.797330000000     0.335370000000    -0.0867966  
C104     C      0.993550000000     0.813120000000     0.329490000000     0.0314129  
C105     C      0.019830000000     0.797350000000     0.323890000000    -0.0848008  
C106     C      0.019600000000     0.766210000000     0.324600000000     0.0733543  
C107     C      0.967720000000     0.766180000000     0.335170000000     0.0713672  
C108     C      0.993470000000     0.846000000000     0.329190000000     0.0362402  
C109     C      0.999550000000     0.861560000000     0.302890000000    -0.0907438  
C110     C      0.998960000000     0.892710000000     0.302900000000     0.0704448  
C111     C      0.987620000000     0.893150000000     0.354600000000     0.0722857  
C112     C      0.987270000000     0.862010000000     0.355190000000    -0.0887088  
C113     C      0.989860000000     0.688320000000     0.131420000000    -0.0874612  
C114     C      0.995430000000     0.662190000000     0.147440000000     0.0328164  
C115     C      0.001680000000     0.635910000000     0.131900000000    -0.085506   
C116     C      0.001940000000     0.636090000000     0.100750000000     0.0740647  
C117     C      0.991050000000     0.687890000000     0.100280000000     0.0716304  
C118     C      0.995030000000     0.662380000000     0.180320000000     0.0326561  
C119     C      0.021080000000     0.656630000000     0.196400000000    -0.0853809  
C120     C      0.020470000000     0.657260000000     0.227540000000     0.0735993  
C121     C      0.968640000000     0.668020000000     0.226980000000     0.0714846  
C122     C      0.968650000000     0.668310000000     0.195810000000    -0.0872649  
C123     C      0.020910000000     0.335770000000     0.460540000000    -0.0838975  
C124     C      0.995180000000     0.328590000000     0.476920000000     0.0326445  
C125     C      0.969260000000     0.321210000000     0.460940000000    -0.0859913  
C126     C      0.969300000000     0.321730000000     0.429800000000     0.0718561  
C127     C      0.020400000000     0.335130000000     0.429390000000     0.0738208  
C128     C      0.995310000000     0.328840000000     0.510300000000     0.0326916  
C129     C      0.021500000000     0.322990000000     0.526480000000    -0.0839275  
C130     C      0.021190000000     0.323580000000     0.557640000000     0.073824   
C131     C      0.969460000000     0.334350000000     0.557600000000     0.0720398  
C132     C      0.969170000000     0.334890000000     0.526480000000    -0.0859826  
C133     C      0.997250000000     0.300550000000     0.859480000000    -0.0920325  
C134     C      0.993440000000     0.327060000000     0.843580000000     0.0368568  
C135     C      0.989360000000     0.353690000000     0.859190000000    -0.0892086  
C136     C      0.989460000000     0.353480000000     0.890340000000     0.0725657  
C137     C      0.996570000000     0.301020000000     0.890630000000     0.073344   
C138     C      0.993670000000     0.326940000000     0.810730000000     0.0311372  
C139     C      0.020140000000     0.321780000000     0.795160000000    -0.0847133  
C140     C      0.020050000000     0.322260000000     0.764000000000     0.0732393  
C141     C      0.967970000000     0.331780000000     0.763640000000     0.0713072  
C142     C      0.967420000000     0.332110000000     0.794790000000    -0.0867593  
C143     C      0.996700000000     0.129010000000     0.632800000000    -0.0905177  
C144     C      0.991900000000     0.145150000000     0.659010000000     0.0362907  
C145     C      0.987520000000     0.129780000000     0.685720000000    -0.088763   
C146     C      0.988470000000     0.098650000000     0.685940000000     0.0724451  
C147     C      0.996860000000     0.097850000000     0.633670000000     0.0705145  
C148     C      0.992130000000     0.177990000000     0.658670000000     0.0314669  
C149     C      0.018840000000     0.193410000000     0.654460000000    -0.0850084  
C150     C      0.018950000000     0.224540000000     0.655180000000     0.0735555  
C151     C      0.966600000000     0.225250000000     0.663040000000     0.0713246  
C152     C      0.965820000000     0.194080000000     0.663110000000    -0.086774   
C153     C      0.020700000000     0.656460000000     0.529820000000    -0.0841374  
C154     C      0.994340000000     0.662960000000     0.514190000000     0.0326138  
C155     C      0.968550000000     0.669050000000     0.530920000000    -0.0856784  
C156     C      0.969480000000     0.668340000000     0.562090000000     0.0715002  
C157     C      0.021030000000     0.656840000000     0.560940000000     0.0739867  
C158     C      0.993890000000     0.663400000000     0.480810000000     0.0325339  
C159     C      0.019620000000     0.670650000000     0.464480000000    -0.0839946  
C160     C      0.019170000000     0.670140000000     0.433360000000     0.0737868  
C161     C      0.967980000000     0.657070000000     0.433590000000     0.0715006  
C162     C      0.967870000000     0.656460000000     0.464770000000    -0.0856987  
C163     C      0.023800000000     0.527910000000     0.657210000000    -0.0839151  
C164     C      0.997620000000     0.511790000000     0.663230000000     0.0326845  
C165     C      0.971630000000     0.528040000000     0.669770000000    -0.086022   
C166     C      0.972060000000     0.559180000000     0.669540000000     0.0720287  
C167     C      0.023640000000     0.559070000000     0.658140000000     0.0738691  
C168     C      0.997340000000     0.478390000000     0.662610000000     0.0326908  
C169     C      0.971210000000     0.462640000000     0.655500000000    -0.0861068  
C170     C      0.971100000000     0.431510000000     0.655620000000     0.071991   
C171     C      0.022440000000     0.430630000000     0.668030000000     0.0738174  
C172     C      0.023120000000     0.461780000000     0.669080000000    -0.0838555  
C173     C      0.972150000000     0.796510000000     0.671470000000    -0.0873829  
C174     C      0.998380000000     0.812290000000     0.665700000000     0.0326046  
C175     C      0.024610000000     0.796510000000     0.659890000000    -0.0854684  
C176     C      0.024280000000     0.765350000000     0.660200000000     0.073591   
C177     C      0.972430000000     0.765350000000     0.670890000000     0.0715138  
C178     C      0.998260000000     0.845160000000     0.665280000000     0.0327107  
C179     C      0.992850000000     0.861340000000     0.691360000000    -0.0875706  
C180     C      0.992870000000     0.892500000000     0.690480000000     0.0715362  
C181     C      0.002460000000     0.891670000000     0.638430000000     0.0739031  
C182     C      0.003320000000     0.860540000000     0.638680000000    -0.085594   
C183     C      0.028010000000     0.665770000000     0.798300000000    -0.0879551  
C184     C      0.001860000000     0.661070000000     0.814580000000     0.0369086  
C185     C      0.975090000000     0.656530000000     0.799350000000    -0.0902876  
C186     C      0.974770000000     0.657130000000     0.768220000000     0.0708458  
C187     C      0.027030000000     0.665540000000     0.767140000000     0.072586   
C188     C      0.002340000000     0.661010000000     0.847430000000     0.0369431  
C189     C      0.007280000000     0.687410000000     0.863180000000    -0.0881805  
C190     C      0.006420000000     0.687180000000     0.894330000000     0.0728255  
C191     C      0.997090000000     0.635070000000     0.894360000000     0.0708311  
C192     C      0.997120000000     0.634660000000     0.863210000000    -0.090314   
C193     C      0.858120000000     0.001130000000     0.351830000000    -0.0856155  
C194     C      0.842790000000     0.995090000000     0.325390000000     0.0329049  
C195     C      0.859020000000     0.989230000000     0.299460000000    -0.0876182  
C196     C      0.890160000000     0.989890000000     0.300260000000     0.0716224  
C197     C      0.889270000000     0.000870000000     0.352030000000     0.073764   
C198     C      0.809910000000     0.995040000000     0.324860000000     0.0327906  
C199     C      0.794020000000     0.021210000000     0.330630000000    -0.0856025  
C200     C      0.762890000000     0.020870000000     0.329840000000     0.0735683  
C201     C      0.763060000000     0.969090000000     0.318820000000     0.0715663  
C202     C      0.794230000000     0.968830000000     0.318690000000    -0.0873712  
C203     C      0.686370000000     0.000970000000     0.125780000000    -0.0855563  
C204     C      0.660110000000     0.994880000000     0.141390000000     0.0329356  
C205     C      0.634130000000     0.988450000000     0.125430000000    -0.0874652  
C206     C      0.634720000000     0.988530000000     0.094280000000     0.0718328  
C207     C      0.686370000000     0.000120000000     0.094630000000     0.073903   
C208     C      0.659850000000     0.995010000000     0.174270000000     0.0328835  
C209     C      0.665660000000     0.021240000000     0.190050000000    -0.085535   
C210     C      0.665070000000     0.020980000000     0.221200000000     0.0735679  
C211     C      0.654180000000     0.969180000000     0.221210000000     0.0717608  
C212     C      0.653850000000     0.968840000000     0.190070000000    -0.0874508  
C213     C      0.460310000000     0.021790000000     0.334650000000    -0.0840571  
C214     C      0.476110000000     0.995730000000     0.327380000000     0.032759   
C215     C      0.459580000000     0.969920000000     0.320900000000    -0.0860353  
C216     C      0.428470000000     0.970470000000     0.322160000000     0.0718128  
C217     C      0.429150000000     0.021750000000     0.334840000000     0.073665   
C218     C      0.509470000000     0.995460000000     0.326530000000     0.032759   
C219     C      0.525650000000     0.021310000000     0.319380000000    -0.0841891  
C220     C      0.556790000000     0.020810000000     0.319190000000     0.07375    
C221     C      0.556760000000     0.969450000000     0.331600000000     0.0716563  
C222     C      0.525620000000     0.969370000000     0.332850000000    -0.0858187  
C223     C      0.127410000000     0.002440000000     0.303590000000    -0.085544   
C224     C      0.142830000000     0.997170000000     0.330130000000     0.0329418  
C225     C      0.126710000000     0.991650000000     0.356200000000    -0.0874805  
C226     C      0.095560000000     0.991830000000     0.355420000000     0.0718224  
C227     C      0.096270000000     0.001730000000     0.303430000000     0.0739126  
C228     C      0.175700000000     0.997250000000     0.330550000000     0.0329207  
C229     C      0.191430000000     0.971010000000     0.336410000000    -0.0875116  
C230     C      0.222580000000     0.971300000000     0.336080000000     0.0717172  
C231     C      0.222670000000     0.023170000000     0.325490000000     0.0735405  
C232     C      0.191510000000     0.023490000000     0.324920000000    -0.0855846  
C233     C      0.331130000000     0.023280000000     0.195880000000    -0.0856207  
C234     C      0.325170000000     0.997120000000     0.180050000000     0.0329276  
C235     C      0.319070000000     0.970930000000     0.195780000000    -0.0873942  
C236     C      0.319460000000     0.971180000000     0.226940000000     0.0716021  
C237     C      0.330600000000     0.022940000000     0.227030000000     0.0735606  
C238     C      0.325500000000     0.997110000000     0.147160000000     0.0329204  
C239     C      0.299500000000     0.991020000000     0.131100000000    -0.087473   
C240     C      0.300170000000     0.991330000000     0.099950000000     0.0717679  
C241     C      0.351920000000     0.002480000000     0.100500000000     0.0739529  
C242     C      0.351850000000     0.003100000000     0.131650000000    -0.0855246  
C243     C      0.319860000000     0.022630000000     0.464410000000    -0.0840444  
C244     C      0.326750000000     0.996650000000     0.480510000000     0.0327006  
C245     C      0.333610000000     0.970750000000     0.464250000000    -0.0859282  
C246     C      0.332930000000     0.971090000000     0.433110000000     0.0717952  
C247     C      0.320290000000     0.022390000000     0.433260000000     0.0735613  
C248     C      0.326720000000     0.996510000000     0.513900000000     0.0328427  
C249     C      0.333240000000     0.022440000000     0.530250000000    -0.0840576  
C250     C      0.332810000000     0.021890000000     0.561420000000     0.0737415  
C251     C      0.320840000000     0.970440000000     0.561020000000     0.0718924  
C252     C      0.320170000000     0.970390000000     0.529890000000    -0.0861022  
C253     C      0.325960000000     0.966290000000     0.798330000000    -0.0869375  
C254     C      0.329710000000     0.992750000000     0.814320000000     0.0320452  
C255     C      0.333480000000     0.019480000000     0.798820000000    -0.0853058  
C256     C      0.333050000000     0.019430000000     0.767680000000     0.0734747  
C257     C      0.326220000000     0.966930000000     0.767160000000     0.071358   
C258     C      0.329430000000     0.992610000000     0.847140000000     0.0354226  
C259     C      0.302640000000     0.989140000000     0.862610000000    -0.0884954  
C260     C      0.302600000000     0.990010000000     0.893760000000     0.0721822  
C261     C      0.355110000000     0.996710000000     0.894300000000     0.0721419  
C262     C      0.355840000000     0.996530000000     0.863150000000    -0.0885824  
C263     C      0.193540000000     0.970410000000     0.662570000000    -0.0876009  
C264     C      0.178200000000     0.997260000000     0.666090000000     0.0328055  
C265     C      0.194360000000     0.023660000000     0.669570000000    -0.0855195  
C266     C      0.225530000000     0.022840000000     0.669070000000     0.0734512  
C267     C      0.224680000000     0.970290000000     0.662730000000     0.0716472  
C268     C      0.145360000000     0.997700000000     0.665500000000     0.0328537  
C269     C      0.130170000000     0.993730000000     0.638620000000    -0.0877364  
C270     C      0.099040000000     0.993810000000     0.638340000000     0.0718322  
C271     C      0.097890000000     0.000940000000     0.690780000000     0.0736777  
C272     C      0.129050000000     0.001540000000     0.691750000000    -0.0854509  
C273     C      0.654440000000     0.967470000000     0.524060000000    -0.0859568  
C274     C      0.661060000000     0.993580000000     0.508050000000     0.0327463  
C275     C      0.668000000000     0.019400000000     0.524370000000    -0.0841598  
C276     C      0.667770000000     0.018840000000     0.555510000000     0.0737505  
C277     C      0.655290000000     0.967500000000     0.555210000000     0.0718113  
C278     C      0.660790000000     0.993870000000     0.474680000000     0.0328461  
C279     C      0.667530000000     0.968070000000     0.458270000000    -0.0861184  
C280     C      0.666790000000     0.968620000000     0.427140000000     0.0718908  
C281     C      0.654160000000     0.019920000000     0.427620000000     0.0736163  
C282     C      0.653830000000     0.019950000000     0.458780000000    -0.0840969  
C283     C      0.528290000000     0.966340000000     0.667000000000    -0.0858562  
C284     C      0.512020000000     0.992310000000     0.660470000000     0.0327306  
C285     C      0.528100000000     0.018180000000     0.653150000000    -0.0841159  
C286     C      0.559240000000     0.017880000000     0.653130000000     0.0737572  
C287     C      0.559440000000     0.966610000000     0.665870000000     0.0716771  
C288     C      0.478640000000     0.992490000000     0.661410000000     0.0327846  
C289     C      0.462060000000     0.966580000000     0.655400000000    -0.0857639  
C290     C      0.430910000000     0.967190000000     0.656680000000     0.0716832  
C291     C      0.431750000000     0.018680000000     0.668510000000     0.0738038  
C292     C      0.462880000000     0.018650000000     0.668330000000    -0.0842456  
C293     C      0.796620000000     0.019100000000     0.663590000000    -0.0850063  
C294     C      0.812480000000     0.992910000000     0.657860000000     0.0315822  
C295     C      0.796790000000     0.966660000000     0.651920000000    -0.0868797  
C296     C      0.765620000000     0.966900000000     0.652290000000     0.0713776  
C297     C      0.765480000000     0.018730000000     0.663070000000     0.0732476  
C298     C      0.845350000000     0.992920000000     0.658520000000     0.0362002  
C299     C      0.861740000000     0.987900000000     0.632510000000    -0.0885269  
C300     C      0.892900000000     0.988570000000     0.633520000000     0.0721515  
C301     C      0.891620000000     0.997870000000     0.685620000000     0.0706148  
C302     C      0.860490000000     0.998070000000     0.685240000000    -0.090736   
C303     C      0.668800000000     0.965790000000     0.792620000000    -0.0869566  
C304     C      0.662960000000     0.991970000000     0.808460000000     0.0316329  
C305     C      0.657210000000     0.018250000000     0.792760000000    -0.0850517  
C306     C      0.657690000000     0.018040000000     0.761610000000     0.0733007  
C307     C      0.668390000000     0.966200000000     0.761460000000     0.071399   
C308     C      0.662700000000     0.991870000000     0.841330000000     0.0360887  
C309     C      0.636200000000     0.996960000000     0.856890000000    -0.0905485  
C310     C      0.636280000000     0.996640000000     0.888030000000     0.0706109  
C311     C      0.688400000000     0.987390000000     0.888480000000     0.0720695  
C312     C      0.688960000000     0.986840000000     0.857320000000    -0.08857    
C313     C      0.305170000000     0.860550000000     0.992780000000    -0.0877146  
C314     C      0.331920000000     0.845490000000     0.998070000000     0.0329311  
C315     C      0.357780000000     0.861990000000     0.003570000000    -0.0856333  
C316     C      0.356580000000     0.893150000000     0.003210000000     0.0737077  
C317     C      0.304600000000     0.891680000000     0.993310000000     0.071746   
C318     C      0.332760000000     0.812630000000     0.997710000000     0.0328178  
C319     C      0.326870000000     0.797030000000     0.971400000000    -0.0874289  
C320     C      0.327470000000     0.765880000000     0.971440000000     0.0717114  
C321     C      0.338660000000     0.765500000000     0.023170000000     0.0733653  
C322     C      0.338970000000     0.796670000000     0.023730000000    -0.0855178  
C323     C      0.133160000000     0.689100000000     0.004380000000    -0.0857042  
C324     C      0.149180000000     0.662960000000     0.998800000000     0.032978   
C325     C      0.133650000000     0.636490000000     0.993480000000    -0.0875716  
C326     C      0.102500000000     0.636490000000     0.994030000000     0.0718247  
C327     C      0.102010000000     0.688470000000     0.004040000000     0.0738108  
C328     C      0.182040000000     0.663310000000     0.998370000000     0.032883   
C329     C      0.197500000000     0.657850000000     0.971880000000    -0.0874942  
C330     C      0.228650000000     0.658370000000     0.971800000000     0.0717138  
C331     C      0.229280000000     0.668580000000     0.023740000000     0.0734332  
C332     C      0.198130000000     0.668950000000     0.024440000000    -0.08563    
C333     C      0.532170000000     0.667580000000     0.020500000000    -0.0842762  
C334     C      0.515810000000     0.660790000000     0.994680000000     0.0328401  
C335     C      0.531770000000     0.653900000000     0.968620000000    -0.0859034  
C336     C      0.562930000000     0.654270000000     0.968710000000     0.0717309  
C337     C      0.563300000000     0.666910000000     0.020010000000     0.0737119  
C338     C      0.482440000000     0.660930000000     0.994950000000     0.0328117  
C339     C      0.466480000000     0.654130000000     0.021030000000    -0.0841751  
C340     C      0.435340000000     0.654940000000     0.021060000000     0.073669   
C341     C      0.434940000000     0.667670000000     0.969790000000     0.0718533  
C342     C      0.466080000000     0.667920000000     0.969170000000    -0.0860054  
C343     C      0.659620000000     0.794080000000     0.967060000000    -0.0869304  
C344     C      0.665220000000     0.810090000000     0.993180000000     0.0317003  
C345     C      0.671380000000     0.794540000000     0.019470000000    -0.0850453  
C346     C      0.671390000000     0.763370000000     0.019340000000     0.0731456  
C347     C      0.660550000000     0.762940000000     0.967530000000     0.0715146  
C348     C      0.664530000000     0.842970000000     0.993010000000     0.0361275  
C349     C      0.690400000000     0.859340000000     0.998810000000    -0.0904842  
C350     C      0.689460000000     0.890480000000     0.998040000000     0.070552   
C351     C      0.637680000000     0.889310000000     0.987090000000     0.0722741  
C352     C      0.638020000000     0.858160000000     0.986930000000    -0.0886402  
C353     C      0.800530000000     0.665650000000     0.967880000000    -0.0873801  
C354     C      0.816260000000     0.660030000000     0.994180000000     0.0327718  
C355     C      0.800420000000     0.654260000000     0.020370000000    -0.0856262  
C356     C      0.769270000000     0.654600000000     0.019980000000     0.073484   
C357     C      0.769370000000     0.665080000000     0.968090000000     0.0715011  
C358     C      0.849140000000     0.660240000000     0.994360000000     0.0329052  
C359     C      0.864780000000     0.686600000000     0.988800000000    -0.0876401  
C360     C      0.895930000000     0.686560000000     0.989750000000     0.0715466  
C361     C      0.896200000000     0.634700000000     0.000370000000     0.0735554  
C362     C      0.865050000000     0.634140000000     0.000330000000    -0.0857131  
C363     C      0.323030000000     0.528320000000     0.021650000000    -0.0841382  
C364     C      0.329230000000     0.512190000000     0.995530000000     0.0328241  
C365     C      0.336190000000     0.528390000000     0.969630000000    -0.0859521  
C366     C      0.336370000000     0.559540000000     0.970150000000     0.0718433  
C367     C      0.324290000000     0.559450000000     0.021580000000     0.0736178  
C368     C      0.328410000000     0.478810000000     0.995290000000     0.0328314  
C369     C      0.334970000000     0.462310000000     0.021100000000    -0.084123   
C370     C      0.333620000000     0.431190000000     0.020620000000     0.0735777  
C371     C      0.320770000000     0.431830000000     0.969380000000     0.0718187  
C372     C      0.321040000000     0.462990000000     0.969280000000    -0.0859779  
C373     C      0.126580000000     0.303860000000     0.990330000000    -0.0887926  
C374     C      0.141900000000     0.330570000000     0.995000000000     0.0362083  
C375     C      0.125690000000     0.356790000000     0.999510000000    -0.0901926  
C376     C      0.094530000000     0.355970000000     0.998880000000     0.0706802  
C377     C      0.095450000000     0.303700000000     0.990530000000     0.0726883  
C378     C      0.174750000000     0.330980000000     0.994890000000     0.0317546  
C379     C      0.190410000000     0.325610000000     0.968510000000    -0.0869726  
C380     C      0.221550000000     0.325710000000     0.968760000000     0.0715501  
C381     C      0.221780000000     0.335410000000     0.020800000000     0.0732351  
C382     C      0.190620000000     0.336160000000     0.021180000000    -0.0850008  
C383     C      0.317330000000     0.194170000000     0.020380000000    -0.085061   
C384     C      0.322550000000     0.178370000000     0.994050000000     0.0316948  
C385     C      0.327770000000     0.194110000000     0.967690000000    -0.0868659  
C386     C      0.327530000000     0.225280000000     0.968000000000     0.0713183  
C387     C      0.317920000000     0.225320000000     0.020050000000     0.0732579  
C388     C      0.323180000000     0.145500000000     0.994260000000     0.0361795  
C389     C      0.350070000000     0.130330000000     0.990180000000    -0.0886796  
C390     C      0.350520000000     0.099200000000     0.991120000000     0.072482   
C391     C      0.298190000000     0.097980000000     0.998970000000     0.0706532  
C392     C      0.297060000000     0.129150000000     0.998830000000    -0.0903076  
C393     C      0.670870000000     0.525670000000     0.968260000000    -0.0860497  
C394     C      0.663590000000     0.509640000000     0.994170000000     0.0328061  
C395     C      0.657390000000     0.525920000000     0.020200000000    -0.0840973  
C396     C      0.658810000000     0.557060000000     0.019980000000     0.0735753  
C397     C      0.671220000000     0.556820000000     0.968630000000     0.0717929  
C398     C      0.662430000000     0.476270000000     0.993980000000     0.032789   
C399     C      0.655000000000     0.460520000000     0.967940000000    -0.0859798  
C400     C      0.654570000000     0.429370000000     0.968000000000     0.0717889  
C401     C      0.667280000000     0.428580000000     0.019270000000     0.0735436  
C402     C      0.668760000000     0.459710000000     0.019800000000    -0.0841352  
C403     C      0.458880000000     0.333760000000     0.967740000000    -0.0859601  
C404     C      0.475170000000     0.326770000000     0.993570000000     0.0328091  
C405     C      0.459110000000     0.319840000000     0.019560000000    -0.0841565  
C406     C      0.427960000000     0.320490000000     0.019440000000     0.073639   
C407     C      0.427740000000     0.333320000000     0.968190000000     0.0717509  
C408     C      0.508550000000     0.326750000000     0.993400000000     0.0327816  
C409     C      0.524570000000     0.320170000000     0.967300000000    -0.0859254  
C410     C      0.555720000000     0.320690000000     0.967410000000     0.0717401  
C411     C      0.556030000000     0.332780000000     0.018840000000     0.0735723  
C412     C      0.524870000000     0.333330000000     0.019310000000    -0.0840319  
C413     C      0.857230000000     0.351360000000     0.986930000000    -0.0888271  
C414     C      0.841870000000     0.324740000000     0.992000000000     0.0361779  
C415     C      0.858060000000     0.298650000000     0.997310000000    -0.0904064  
C416     C      0.889220000000     0.299510000000     0.997130000000     0.0705712  
C417     C      0.888370000000     0.351580000000     0.987650000000     0.0724504  
C418     C      0.809000000000     0.324330000000     0.991950000000     0.0316848  
C419     C      0.793180000000     0.330420000000     0.965820000000    -0.086849   
C420     C      0.762020000000     0.330130000000     0.966200000000     0.0713976  
C421     C      0.762120000000     0.318910000000     0.017930000000     0.0733032  
C422     C      0.793270000000     0.318290000000     0.018150000000    -0.0851006  
C423     C      0.663800000000     0.191910000000     0.964870000000    -0.0868684  
C424     C      0.658300000000     0.175860000000     0.990990000000     0.0315576  
C425     C      0.652580000000     0.191360000000     0.017400000000    -0.0849421  
C426     C      0.652920000000     0.222520000000     0.017400000000     0.0732308  
C427     C      0.663250000000     0.223060000000     0.965480000000     0.0714711  
C428     C      0.658760000000     0.143000000000     0.990740000000     0.036674   
C429     C      0.632710000000     0.126780000000     0.996070000000    -0.0914495  
C430     C      0.633540000000     0.095630000000     0.995560000000     0.073376   
C431     C      0.685540000000     0.096530000000     0.985650000000     0.072599   
C432     C      0.685330000000     0.127680000000     0.985280000000    -0.0889075  
H1       H      0.984060000000     0.141640000000     0.279360000000     0.0529293  
H2       H      0.984200000000     0.087320000000     0.279990000000     0.0264597  
H3       H      0.001260000000     0.088050000000     0.373990000000     0.0289917  
H4       H      0.002140000000     0.142340000000     0.373660000000     0.0554493  
H5       H      0.946310000000     0.183150000000     0.316660000000     0.0526493  
H6       H      0.946670000000     0.237450000000     0.317040000000     0.0266719  
H7       H      0.040490000000     0.237140000000     0.335080000000     0.0265794  
H8       H      0.040430000000     0.182820000000     0.335730000000     0.0528089  
H9       H      0.981260000000     0.375560000000     0.139280000000     0.052985   
H10      H      0.981540000000     0.375030000000     0.084980000000     0.0264565  
H11      H      0.000800000000     0.281450000000     0.085560000000     0.0289085  
H12      H      0.001590000000     0.281700000000     0.139850000000     0.0553001  
H13      H      0.945050000000     0.339380000000     0.181150000000     0.05253    
H14      H      0.945880000000     0.339130000000     0.235450000000     0.026626   
H15      H      0.039350000000     0.319400000000     0.234360000000     0.0265999  
H16      H      0.038800000000     0.318580000000     0.180080000000     0.052813   
H17      H      0.040200000000     0.474550000000     0.315320000000     0.0505749  
H18      H      0.039960000000     0.420730000000     0.315560000000     0.0263265  
H19      H      0.947600000000     0.420380000000     0.339570000000     0.0264071  
H20      H      0.947480000000     0.474120000000     0.341860000000     0.050635   
H21      H      0.947380000000     0.517880000000     0.316430000000     0.050553   
H22      H      0.947560000000     0.571610000000     0.318490000000     0.0263883  
H23      H      0.040090000000     0.571330000000     0.341810000000     0.0262997  
H24      H      0.040310000000     0.517500000000     0.342270000000     0.0506232  
H25      H      0.040490000000     0.809050000000     0.319320000000     0.0525532  
H26      H      0.040460000000     0.754760000000     0.320290000000     0.0265153  
H27      H      0.946900000000     0.754710000000     0.339650000000     0.0265839  
H28      H      0.946640000000     0.809010000000     0.339740000000     0.0524038  
H29      H      0.004360000000     0.849700000000     0.282390000000     0.0550957  
H30      H      0.003620000000     0.904000000000     0.282020000000     0.0285291  
H31      H      0.982860000000     0.904790000000     0.375270000000     0.0261034  
H32      H      0.982530000000     0.850490000000     0.375910000000     0.0527411  
H33      H      0.006050000000     0.615320000000     0.143770000000     0.0532027  
H34      H      0.006740000000     0.615220000000     0.089490000000     0.0271695  
H35      H      0.986800000000     0.708660000000     0.088630000000     0.0265055  
H36      H      0.985040000000     0.709030000000     0.142910000000     0.0524702  
H37      H      0.041870000000     0.652020000000     0.184960000000     0.0528045  
H38      H      0.041180000000     0.652850000000     0.239210000000     0.0265631  
H39      H      0.947710000000     0.672550000000     0.238220000000     0.0264778  
H40      H      0.948100000000     0.672790000000     0.183890000000     0.0525597  
H41      H      0.948960000000     0.314650000000     0.472210000000     0.0505562  
H42      H      0.948720000000     0.315940000000     0.418500000000     0.0262913  
H43      H      0.040810000000     0.340870000000     0.417730000000     0.0262574  
H44      H      0.041380000000     0.342340000000     0.471510000000     0.0505859  
H45      H      0.042190000000     0.317490000000     0.515350000000     0.0504785  
H46      H      0.041940000000     0.318890000000     0.569150000000     0.0260271  
H47      H      0.948690000000     0.339070000000     0.569060000000     0.0261495  
H48      H      0.948470000000     0.340410000000     0.515360000000     0.0505324  
H49      H      0.986390000000     0.374570000000     0.847380000000     0.0530715  
H50      H      0.986360000000     0.374620000000     0.901670000000     0.0259853  
H51      H      0.999450000000     0.279980000000     0.902210000000     0.0254815  
H52      H      0.000430000000     0.279580000000     0.847900000000     0.0557665  
H53      H      0.040820000000     0.317740000000     0.807000000000     0.0527704  
H54      H      0.041060000000     0.318350000000     0.752690000000     0.0265712  
H55      H      0.947120000000     0.335780000000     0.752050000000     0.0266096  
H56      H      0.946580000000     0.336140000000     0.806350000000     0.0525567  
H57      H      0.983850000000     0.141780000000     0.706380000000     0.052973   
H58      H      0.985200000000     0.087530000000     0.707160000000     0.0263054  
H59      H      0.000590000000     0.086070000000     0.612890000000     0.0289634  
H60      H      0.000190000000     0.140420000000     0.611780000000     0.0555345  
H61      H      0.039570000000     0.181450000000     0.651060000000     0.0529803  
H62      H      0.040180000000     0.235700000000     0.652020000000     0.0265449  
H63      H      0.945740000000     0.236990000000     0.666470000000     0.0265653  
H64      H      0.944800000000     0.182630000000     0.666460000000     0.0526612  
H65      H      0.947710000000     0.674830000000     0.520210000000     0.0504164  
H66      H      0.949040000000     0.673230000000     0.574060000000     0.0262423  
H67      H      0.041980000000     0.651760000000     0.571930000000     0.0261587  
H68      H      0.041090000000     0.650700000000     0.518270000000     0.0505892  
H69      H      0.040120000000     0.677080000000     0.475480000000     0.0504937  
H70      H      0.039650000000     0.675800000000     0.421810000000     0.0263299  
H71      H      0.947390000000     0.651490000000     0.422190000000     0.0263016  
H72      H      0.947510000000     0.650090000000     0.476040000000     0.0505413  
H73      H      0.950950000000     0.516970000000     0.675440000000     0.0503921  
H74      H      0.951400000000     0.570700000000     0.674640000000     0.0259983  
H75      H      0.044400000000     0.570520000000     0.653310000000     0.0260742  
H76      H      0.044370000000     0.516760000000     0.651320000000     0.0505753  
H77      H      0.950850000000     0.474080000000     0.649440000000     0.0505376  
H78      H      0.950340000000     0.420400000000     0.650060000000     0.0261702  
H79      H      0.042880000000     0.418770000000     0.673210000000     0.0261405  
H80      H      0.043770000000     0.472550000000     0.675400000000     0.050536   
H81      H      0.045270000000     0.808210000000     0.655350000000     0.052632   
H82      H      0.045100000000     0.753890000000     0.655690000000     0.0263767  
H83      H      0.951580000000     0.753900000000     0.675250000000     0.0264646  
H84      H      0.951470000000     0.808190000000     0.675960000000     0.0525869  
H85      H      0.988880000000     0.849960000000     0.712310000000     0.0523004  
H86      H      0.988690000000     0.904300000000     0.711180000000     0.0260477  
H87      H      0.006280000000     0.902780000000     0.617290000000     0.0267362  
H88      H      0.007520000000     0.848540000000     0.618120000000     0.0530379  
H89      H      0.954490000000     0.652890000000     0.811440000000     0.0531332  
H90      H      0.953510000000     0.653680000000     0.757230000000     0.0265889  
H91      H      0.047770000000     0.669130000000     0.755230000000     0.0265687  
H92      H      0.049080000000     0.669320000000     0.809600000000     0.0531353  
H93      H      0.011280000000     0.708180000000     0.851480000000     0.0533593  
H94      H      0.010090000000     0.708170000000     0.905790000000     0.0265564  
H95      H      0.993010000000     0.614170000000     0.905810000000     0.0262758  
H96      H      0.993200000000     0.613870000000     0.851510000000     0.0529762  
H97      H      0.847690000000     0.984550000000     0.278630000000     0.0523932  
H98      H      0.901980000000     0.985410000000     0.279640000000     0.0262378  
H99      H      0.900370000000     0.005500000000     0.373010000000     0.0268335  
H100     H      0.846080000000     0.005710000000     0.372290000000     0.0529994  
H101     H      0.805630000000     0.041870000000     0.335410000000     0.0527134  
H102     H      0.751360000000     0.041660000000     0.334310000000     0.0265183  
H103     H      0.751670000000     0.948270000000     0.314150000000     0.0264631  
H104     H      0.805990000000     0.948200000000     0.314180000000     0.052535   
H105     H      0.613440000000     0.983680000000     0.136980000000     0.0526332  
H106     H      0.614080000000     0.983580000000     0.082690000000     0.0266467  
H107     H      0.707230000000     0.004770000000     0.083310000000     0.0270425  
H108     H      0.706860000000     0.005950000000     0.137590000000     0.0529864  
H109     H      0.670320000000     0.041880000000     0.178350000000     0.0527233  
H110     H      0.669550000000     0.041800000000     0.232660000000     0.0264519  
H111     H      0.649620000000     0.948370000000     0.232660000000     0.0265602  
H112     H      0.649320000000     0.948160000000     0.178400000000     0.0526809  
H113     H      0.470420000000     0.949350000000     0.314430000000     0.0505417  
H114     H      0.416710000000     0.949970000000     0.316970000000     0.0264162  
H115     H      0.417950000000     0.042430000000     0.340540000000     0.0262787  
H116     H      0.471770000000     0.042190000000     0.340590000000     0.0506203  
H117     H      0.514500000000     0.041900000000     0.313530000000     0.0505991  
H118     H      0.568270000000     0.041360000000     0.313600000000     0.0263347  
H119     H      0.568230000000     0.948770000000     0.336690000000     0.0263569  
H120     H      0.514480000000     0.948920000000     0.339210000000     0.0505443  
H121     H      0.138120000000     0.987510000000     0.377110000000     0.0526448  
H122     H      0.083820000000     0.987610000000     0.376140000000     0.0266148  
H123     H      0.085090000000     0.005750000000     0.282360000000     0.0272113  
H124     H      0.139380000000     0.006710000000     0.283020000000     0.0531405  
H125     H      0.179720000000     0.950330000000     0.340800000000     0.0527796  
H126     H      0.234010000000     0.950440000000     0.340500000000     0.0265788  
H127     H      0.234160000000     0.044000000000     0.321110000000     0.0265095  
H128     H      0.179850000000     0.044170000000     0.320360000000     0.0528644  
H129     H      0.314430000000     0.950310000000     0.184060000000     0.0526865  
H130     H      0.314830000000     0.950370000000     0.238360000000     0.0265289  
H131     H      0.335220000000     0.043710000000     0.238520000000     0.0265184  
H132     H      0.335880000000     0.043920000000     0.184240000000     0.0528115  
H133     H      0.278740000000     0.986360000000     0.142560000000     0.0525483  
H134     H      0.279520000000     0.986640000000     0.088270000000     0.0265899  
H135     H      0.372850000000     0.007030000000     0.089270000000     0.0271125  
H136     H      0.372350000000     0.007830000000     0.143550000000     0.0531411  
H137     H      0.339890000000     0.950250000000     0.475320000000     0.0505729  
H138     H      0.338340000000     0.950530000000     0.421570000000     0.0263164  
H139     H      0.314800000000     0.042990000000     0.421840000000     0.0263703  
H140     H      0.313690000000     0.043090000000     0.475620000000     0.0505888  
H141     H      0.339130000000     0.043090000000     0.519250000000     0.0506537  
H142     H      0.338030000000     0.042440000000     0.573070000000     0.026207   
H143     H      0.315700000000     0.949680000000     0.572330000000     0.0261997  
H144     H      0.314150000000     0.949910000000     0.518630000000     0.0504609  
H145     H      0.336400000000     0.040320000000     0.810710000000     0.0530319  
H146     H      0.335860000000     0.040670000000     0.756460000000     0.0265031  
H147     H      0.323300000000     0.945950000000     0.755490000000     0.0265816  
H148     H      0.323010000000     0.945240000000     0.809850000000     0.0526987  
H149     H      0.281820000000     0.986160000000     0.850690000000     0.0528938  
H150     H      0.281330000000     0.987420000000     0.904980000000     0.0260835  
H151     H      0.376080000000     0.999740000000     0.905960000000     0.026011   
H152     H      0.376920000000     0.999310000000     0.851650000000     0.0527984  
H153     H      0.182970000000     0.044810000000     0.672270000000     0.0530368  
H154     H      0.237330000000     0.043800000000     0.671630000000     0.0265006  
H155     H      0.235760000000     0.948970000000     0.659970000000     0.0265359  
H156     H      0.181510000000     0.949620000000     0.659800000000     0.0528987  
H157     H      0.142310000000     0.990690000000     0.617940000000     0.0529164  
H158     H      0.088080000000     0.990700000000     0.617010000000     0.0265923  
H159     H      0.085960000000     0.003780000000     0.711630000000     0.0271511  
H160     H      0.140330000000     0.004600000000     0.712910000000     0.0532416  
H161     H      0.674030000000     0.040000000000     0.513330000000     0.0505747  
H162     H      0.673260000000     0.039350000000     0.567090000000     0.0263354  
H163     H      0.650030000000     0.946800000000     0.566570000000     0.0263122  
H164     H      0.648210000000     0.947060000000     0.512800000000     0.0506156  
H165     H      0.673810000000     0.947490000000     0.469200000000     0.0505524  
H166     H      0.672150000000     0.948120000000     0.415470000000     0.02636    
H167     H      0.648660000000     0.040600000000     0.416340000000     0.0262697  
H168     H      0.647720000000     0.040350000000     0.470140000000     0.0506313  
H169     H      0.516880000000     0.038670000000     0.647070000000     0.0505913  
H170     H      0.570630000000     0.038450000000     0.647420000000     0.026274   
H171     H      0.571010000000     0.946030000000     0.671140000000     0.0263509  
H172     H      0.517240000000     0.945880000000     0.673460000000     0.0505095  
H173     H      0.472860000000     0.945890000000     0.649270000000     0.0505616  
H174     H      0.419070000000     0.946660000000     0.651840000000     0.0262697  
H175     H      0.420640000000     0.039470000000     0.673920000000     0.0261415  
H176     H      0.474340000000     0.039120000000     0.674010000000     0.0504774  
H177     H      0.808540000000     0.946020000000     0.647470000000     0.0524922  
H178     H      0.754210000000     0.946040000000     0.647820000000     0.0265565  
H179     H      0.753970000000     0.039530000000     0.667540000000     0.0265688  
H180     H      0.808250000000     0.039780000000     0.668240000000     0.0526602  
H181     H      0.850540000000     0.983880000000     0.611470000000     0.0528129  
H182     H      0.904880000000     0.984800000000     0.612860000000     0.0260659  
H183     H      0.902550000000     0.001850000000     0.706830000000     0.0282705  
H184     H      0.848310000000     0.001970000000     0.705750000000     0.0549654  
H185     H      0.652650000000     0.038880000000     0.804510000000     0.0526815  
H186     H      0.653240000000     0.038910000000     0.750230000000     0.0265529  
H187     H      0.672830000000     0.945400000000     0.749930000000     0.0265231  
H188     H      0.673290000000     0.945090000000     0.804250000000     0.0525025  
H189     H      0.615510000000     0.000890000000     0.845020000000     0.0551494  
H190     H      0.615240000000     0.000560000000     0.899310000000     0.0285031  
H191     H      0.709250000000     0.983590000000     0.900120000000     0.0260368  
H192     H      0.709840000000     0.982880000000     0.845800000000     0.0526125  
H193     H      0.378830000000     0.850870000000     0.007710000000     0.0530233  
H194     H      0.377140000000     0.905210000000     0.007340000000     0.0267265  
H195     H      0.283370000000     0.902520000000     0.989200000000     0.0261909  
H196     H      0.284770000000     0.848300000000     0.988520000000     0.052448   
H197     H      0.322010000000     0.808860000000     0.950880000000     0.0525972  
H198     H      0.322840000000     0.754580000000     0.950560000000     0.0265303  
H199     H      0.343320000000     0.753880000000     0.043860000000     0.0264768  
H200     H      0.343550000000     0.808210000000     0.044470000000     0.0526713  
H201     H      0.145530000000     0.615890000000     0.989160000000     0.0527994  
H202     H      0.091250000000     0.615490000000     0.989870000000     0.0266745  
H203     H      0.090340000000     0.709250000000     0.008210000000     0.0270147  
H204     H      0.144660000000     0.709940000000     0.008550000000     0.0530463  
H205     H      0.185560000000     0.653470000000     0.951330000000     0.0527893  
H206     H      0.239850000000     0.654130000000     0.950780000000     0.0265539  
H207     H      0.240990000000     0.672830000000     0.044460000000     0.0265028  
H208     H      0.186690000000     0.673210000000     0.045300000000     0.0528194  
H209     H      0.520440000000     0.647790000000     0.948200000000     0.0505764  
H210     H      0.574270000000     0.648800000000     0.948060000000     0.0263176  
H211     H      0.574910000000     0.672300000000     0.040530000000     0.0263319  
H212     H      0.521180000000     0.673830000000     0.041060000000     0.0505983  
H213     H      0.477790000000     0.647820000000     0.041400000000     0.0506463  
H214     H      0.424030000000     0.649570000000     0.041760000000     0.0263206  
H215     H      0.423300000000     0.673240000000     0.949330000000     0.026355   
H216     H      0.477100000000     0.674040000000     0.948580000000     0.0505257  
H217     H      0.675760000000     0.806400000000     0.040060000000     0.0525898  
H218     H      0.676040000000     0.752080000000     0.040210000000     0.0264863  
H219     H      0.656200000000     0.751310000000     0.946770000000     0.0265775  
H220     H      0.654850000000     0.805580000000     0.946340000000     0.0524633  
H221     H      0.711280000000     0.848120000000     0.003530000000     0.0547947  
H222     H      0.710030000000     0.902400000000     0.002470000000     0.0282542  
H223     H      0.616650000000     0.900300000000     0.982420000000     0.0261675  
H224     H      0.617620000000     0.846010000000     0.982410000000     0.0528555  
H225     H      0.812060000000     0.649890000000     0.041100000000     0.0527139  
H226     H      0.757780000000     0.650210000000     0.040800000000     0.0264857  
H227     H      0.757950000000     0.669400000000     0.947220000000     0.0264314  
H228     H      0.812270000000     0.670130000000     0.947230000000     0.0524528  
H229     H      0.852990000000     0.707190000000     0.984170000000     0.0523272  
H230     H      0.907290000000     0.707500000000     0.985540000000     0.0260679  
H231     H      0.907760000000     0.613960000000     0.004980000000     0.0267832  
H232     H      0.853470000000     0.613370000000     0.004680000000     0.0529566  
H233     H      0.341910000000     0.517250000000     0.949000000000     0.0506017  
H234     H      0.341840000000     0.571050000000     0.949590000000     0.0263376  
H235     H      0.319320000000     0.570890000000     0.042310000000     0.0263293  
H236     H      0.316790000000     0.517170000000     0.042130000000     0.0505626  
H237     H      0.341550000000     0.473160000000     0.041630000000     0.0506281  
H238     H      0.338850000000     0.419450000000     0.041110000000     0.0263606  
H239     H      0.314960000000     0.420620000000     0.948750000000     0.0263253  
H240     H      0.315040000000     0.474420000000     0.948890000000     0.0505512  
H241     H      0.137050000000     0.377820000000     0.003130000000     0.0552794  
H242     H      0.082680000000     0.376780000000     0.002280000000     0.0287947  
H243     H      0.084390000000     0.282490000000     0.986940000000     0.0264446  
H244     H      0.138620000000     0.283200000000     0.986800000000     0.0530693  
H245     H      0.178630000000     0.321530000000     0.947800000000     0.0527682  
H246     H      0.232900000000     0.321520000000     0.947820000000     0.0267051  
H247     H      0.233340000000     0.339290000000     0.041680000000     0.0265708  
H248     H      0.179000000000     0.340290000000     0.041970000000     0.0528625  
H249     H      0.331890000000     0.182390000000     0.946960000000     0.0526666  
H250     H      0.331630000000     0.236720000000     0.947090000000     0.0266126  
H251     H      0.314030000000     0.236790000000     0.040990000000     0.0266522  
H252     H      0.313300000000     0.182500000000     0.041160000000     0.0529385  
H253     H      0.370660000000     0.142490000000     0.986660000000     0.0531281  
H254     H      0.371870000000     0.088260000000     0.988040000000     0.0264526  
H255     H      0.277450000000     0.086030000000     0.002460000000     0.0287621  
H256     H      0.275910000000     0.140380000000     0.002060000000     0.0552321  
H257     H      0.650980000000     0.514890000000     0.040690000000     0.050605   
H258     H      0.653770000000     0.568640000000     0.040610000000     0.0262886  
H259     H      0.676880000000     0.568180000000     0.948040000000     0.0263161  
H260     H      0.676660000000     0.514410000000     0.947720000000     0.0505195  
H261     H      0.649110000000     0.472010000000     0.947550000000     0.0505978  
H262     H      0.648770000000     0.418220000000     0.947330000000     0.0263418  
H263     H      0.672400000000     0.416790000000     0.039760000000     0.0263189  
H264     H      0.675310000000     0.470520000000     0.040360000000     0.0505307  
H265     H      0.470350000000     0.313540000000     0.039970000000     0.0505546  
H266     H      0.416560000000     0.315030000000     0.040070000000     0.0262528  
H267     H      0.416180000000     0.338890000000     0.947690000000     0.0263956  
H268     H      0.469930000000     0.340010000000     0.947220000000     0.0505939  
H269     H      0.513310000000     0.314180000000     0.946810000000     0.050486   
H270     H      0.567070000000     0.315450000000     0.946700000000     0.0263519  
H271     H      0.567630000000     0.337980000000     0.039420000000     0.0263232  
H272     H      0.513840000000     0.339320000000     0.039930000000     0.050596   
H273     H      0.846690000000     0.277690000000     0.001270000000     0.0549295  
H274     H      0.901030000000     0.278790000000     0.001190000000     0.0283369  
H275     H      0.899470000000     0.372720000000     0.983800000000     0.0260373  
H276     H      0.845230000000     0.371930000000     0.982830000000     0.052881   
H277     H      0.804840000000     0.335170000000     0.945180000000     0.0524096  
H278     H      0.750530000000     0.334880000000     0.945460000000     0.026541   
H279     H      0.750690000000     0.314350000000     0.038760000000     0.0265678  
H280     H      0.804990000000     0.313570000000     0.038750000000     0.0527248  
H281     H      0.648290000000     0.179450000000     0.037990000000     0.0527897  
H282     H      0.648610000000     0.233760000000     0.038370000000     0.0265702  
H283     H      0.667530000000     0.234730000000     0.944730000000     0.026607   
H284     H      0.668250000000     0.180440000000     0.944070000000     0.052578   
H285     H      0.611790000000     0.138120000000     0.000320000000     0.0555878  
H286     H      0.612850000000     0.083810000000     0.999670000000     0.0260023  
H287     H      0.706630000000     0.085440000000     0.981520000000     0.0263803  
H288     H      0.705870000000     0.139720000000     0.981120000000     0.052978   
N1       N      0.992710000000     0.083670000000     0.327020000000    -0.197525   
N2       N      0.993590000000     0.241310000000     0.326090000000    -0.198366   
N3       N      0.991190000000     0.328220000000     0.081260000000    -0.197478   
N4       N      0.992660000000     0.329260000000     0.238920000000    -0.198289   
N5       N      0.993780000000     0.416560000000     0.327480000000    -0.198552   
N6       N      0.993830000000     0.575470000000     0.330190000000    -0.19854    
N7       N      0.993690000000     0.750720000000     0.329990000000    -0.198374   
N8       N      0.993220000000     0.908400000000     0.328600000000    -0.197615   
N9       N      0.996900000000     0.661930000000     0.085040000000    -0.198649   
N10      N      0.994400000000     0.662720000000     0.242730000000    -0.198312   
N11      N      0.994720000000     0.328460000000     0.414140000000    -0.198573   
N12      N      0.995300000000     0.328900000000     0.573080000000    -0.1986     
N13      N      0.992860000000     0.327320000000     0.905970000000    -0.198206   
N14      N      0.994130000000     0.327100000000     0.748340000000    -0.198343   
N15      N      0.993040000000     0.082780000000     0.660100000000    -0.197471   
N16      N      0.993020000000     0.240370000000     0.659350000000    -0.198424   
N17      N      0.995610000000     0.662590000000     0.576980000000    -0.198469   
N18      N      0.993530000000     0.663520000000     0.418000000000    -0.198366   
N19      N      0.997900000000     0.574590000000     0.663960000000    -0.198686   
N20      N      0.996550000000     0.415600000000     0.661660000000    -0.198698   
N21      N      0.998330000000     0.749880000000     0.665400000000    -0.198461   
N22      N      0.997380000000     0.907560000000     0.664160000000    -0.198876   
N23      N      0.000560000000     0.661460000000     0.752210000000    -0.195231   
N24      N      0.001410000000     0.661190000000     0.909820000000    -0.197028   
N25      N      0.905190000000     0.995490000000     0.326390000000    -0.198676   
N26      N      0.747500000000     0.994950000000     0.324220000000    -0.198399   
N27      N      0.660700000000     0.994110000000     0.078990000000    -0.198568   
N28      N      0.659600000000     0.995090000000     0.236680000000    -0.198421   
N29      N      0.413340000000     0.996240000000     0.328840000000    -0.198453   
N30      N      0.572240000000     0.995050000000     0.325100000000    -0.19841    
N31      N      0.080440000000     0.996640000000     0.329190000000    -0.198567   
N32      N      0.238100000000     0.997210000000     0.330770000000    -0.198391   
N33      N      0.325050000000     0.997030000000     0.242460000000    -0.198362   
N34      N      0.326240000000     0.996790000000     0.084760000000    -0.198548   
N35      N      0.326510000000     0.996750000000     0.417710000000    -0.198359   
N36      N      0.326970000000     0.996020000000     0.576690000000    -0.198508   
N37      N      0.329510000000     0.993350000000     0.751950000000    -0.198217   
N38      N      0.328650000000     0.993700000000     0.909500000000    -0.197975   
N39      N      0.240590000000     0.996340000000     0.665720000000    -0.198358   
N40      N      0.082980000000     0.997150000000     0.664250000000    -0.198491   
N41      N      0.661670000000     0.993040000000     0.570820000000    -0.198517   
N42      N      0.660370000000     0.994390000000     0.411910000000    -0.198532   
N43      N      0.574810000000     0.992260000000     0.659290000000    -0.198477   
N44      N      0.415860000000     0.993120000000     0.662890000000    -0.198478   
N45      N      0.750070000000     0.992760000000     0.657730000000    -0.198276   
N46      N      0.907730000000     0.993390000000     0.659920000000    -0.197637   
N47      N      0.663020000000     0.992160000000     0.746060000000    -0.19829    
N48      N      0.662220000000     0.992120000000     0.903730000000    -0.197645   
N49      N      0.330160000000     0.907880000000     0.998240000000    -0.198711   
N50      N      0.333030000000     0.750220000000     0.997190000000    -0.198329   
N51      N      0.086780000000     0.662340000000     0.999000000000    -0.198573   
N52      N      0.244440000000     0.663450000000     0.997580000000    -0.198342   
N53      N      0.578580000000     0.660500000000     0.994270000000    -0.198445   
N54      N      0.419670000000     0.661480000000     0.995590000000    -0.198522   
N55      N      0.666140000000     0.747680000000     0.993520000000    -0.198311   
N56      N      0.663260000000     0.905360000000     0.992390000000    -0.19766    
N57      N      0.753850000000     0.659810000000     0.994000000000    -0.198307   
N58      N      0.911540000000     0.660780000000     0.995360000000    -0.19865    
N59      N      0.330670000000     0.574960000000     0.995970000000    -0.198445   
N60      N      0.326790000000     0.416040000000     0.994900000000    -0.19844    
N61      N      0.079520000000     0.329580000000     0.994560000000    -0.197563   
N62      N      0.237140000000     0.330300000000     0.994760000000    -0.198296   
N63      N      0.322940000000     0.240780000000     0.994050000000    -0.19811    
N64      N      0.324760000000     0.083120000000     0.995360000000    -0.197402   
N65      N      0.665360000000     0.572400000000     0.994320000000    -0.198407   
N66      N      0.660510000000     0.413510000000     0.993500000000    -0.198384   
N67      N      0.412380000000     0.326990000000     0.993910000000    -0.198405   
N68      N      0.571340000000     0.326710000000     0.993040000000    -0.198361   
N69      N      0.904260000000     0.325830000000     0.992560000000    -0.197701   
N70      N      0.746600000000     0.324690000000     0.992130000000    -0.198256   
N71      N      0.658100000000     0.238260000000     0.991600000000    -0.198287   
N72      N      0.659810000000     0.080610000000     0.990620000000    -0.197925   
Ni1      Ni     0.658830000000     0.326170000000     0.966070000000     1.0002     
Ni2      Ni     0.659110000000     0.325600000000     0.019080000000     1.00349    
Ni3      Ni     0.324900000000     0.328280000000     0.020920000000     1.003      
Ni4      Ni     0.324610000000     0.328590000000     0.967910000000     1.00043    
Ni5      Ni     0.666230000000     0.660180000000     0.020530000000     1.00395    
Ni6      Ni     0.666170000000     0.659900000000     0.967510000000     0.999915   
Ni7      Ni     0.331790000000     0.662770000000     0.970080000000     1.00044    
Ni8      Ni     0.332340000000     0.662380000000     0.023090000000     1.00363    
Ni9      Ni     0.662370000000     0.019010000000     0.658540000000     1.00534    
Ni10     Ni     0.662490000000     0.965990000000     0.658320000000     0.998036   
Ni11     Ni     0.327640000000     0.968180000000     0.663810000000     1.00024    
Ni12     Ni     0.328840000000     0.021220000000     0.664820000000     1.00459    
Ni13     Ni     0.325870000000     0.023350000000     0.330150000000     1.00289    
Ni14     Ni     0.325590000000     0.970330000000     0.330030000000     1.00073    
Ni15     Ni     0.659870000000     0.968370000000     0.324210000000     1.00058    
Ni16     Ni     0.659860000000     0.021390000000     0.324400000000     1.00379    
Ni17     Ni     0.971590000000     0.662300000000     0.665470000000     1.00068    
Ni18     Ni     0.024630000000     0.662140000000     0.663730000000     1.0041     
Ni19     Ni     0.021320000000     0.327340000000     0.660890000000     1.00345    
Ni20     Ni     0.968270000000     0.328650000000     0.660500000000     1.00216    
Ni21     Ni     0.020310000000     0.663120000000     0.330510000000     1.0058     
Ni22     Ni     0.967290000000     0.663060000000     0.330230000000     0.998094   
Ni23     Ni     0.967210000000     0.328940000000     0.326860000000     1.00089    
Ni24     Ni     0.020230000000     0.328940000000     0.326220000000     1.00346    
Ni25     Ni     0.992550000000     0.301220000000     0.993760000000     0.999566   
Ni26     Ni     0.991220000000     0.354260000000     0.993470000000     0.99915    
Ni27     Ni     0.999390000000     0.635060000000     0.997550000000     0.999634   
Ni28     Ni     0.998920000000     0.688090000000     0.997310000000     0.995769   
Ni29     Ni     0.992390000000     0.996270000000     0.354300000000     0.998821   
Ni30     Ni     0.993240000000     0.995800000000     0.301290000000     0.998504   
Ni31     Ni     0.996110000000     0.994490000000     0.635610000000     0.999392   
Ni32     Ni     0.994580000000     0.995860000000     0.688630000000     0.998871   
Ni33     Ni     0.635000000000     0.992460000000     0.991140000000     0.999053   
Ni34     Ni     0.688010000000     0.993520000000     0.991590000000     0.998398   
Ni35     Ni     0.300930000000     0.994580000000     0.996770000000     0.998987   
Ni36     Ni     0.353950000000     0.996400000000     0.997480000000     0.999181   
O1       O      0.616130000000     0.325170000000     0.968040000000    -0.449147   
O2       O      0.701560000000     0.327050000000     0.967620000000    -0.4491     
O3       O      0.659760000000     0.283450000000     0.967350000000    -0.449466   
O4       O      0.657920000000     0.368870000000     0.968310000000    -0.449248   
O5       O      0.661210000000     0.368300000000     0.017780000000    -0.448004   
O6       O      0.657080000000     0.282940000000     0.016860000000    -0.447934   
O7       O      0.701770000000     0.323570000000     0.017090000000    -0.447967   
O8       O      0.616420000000     0.327680000000     0.017570000000    -0.447812   
O9       O      0.367570000000     0.325920000000     0.018920000000    -0.447557   
O10      O      0.282200000000     0.330660000000     0.019380000000    -0.447673   
O11      O      0.322540000000     0.285650000000     0.018970000000    -0.44805    
O12      O      0.327300000000     0.370950000000     0.019380000000    -0.448078   
O13      O      0.324080000000     0.371310000000     0.969900000000    -0.449164   
O14      O      0.325120000000     0.285820000000     0.969450000000    -0.448579   
O15      O      0.281940000000     0.328080000000     0.969870000000    -0.449943   
O16      O      0.367330000000     0.329160000000     0.969440000000    -0.449506   
O17      O      0.623580000000     0.661870000000     0.018840000000    -0.448774   
O18      O      0.708910000000     0.658520000000     0.018730000000    -0.448353   
O19      O      0.667870000000     0.702880000000     0.018540000000    -0.447771   
O20      O      0.664510000000     0.617440000000     0.018960000000    -0.447516   
O21      O      0.667480000000     0.617230000000     0.969460000000    -0.449489   
O22      O      0.664850000000     0.702600000000     0.969050000000    -0.449514   
O23      O      0.708900000000     0.661220000000     0.969220000000    -0.448918   
O24      O      0.623440000000     0.658590000000     0.969360000000    -0.44872    
O25      O      0.374500000000     0.663710000000     0.971360000000    -0.449532   
O26      O      0.289090000000     0.661830000000     0.972310000000    -0.449208   
O27      O      0.330890000000     0.705470000000     0.972160000000    -0.44934    
O28      O      0.332740000000     0.620040000000     0.971520000000    -0.449142   
O29      O      0.330240000000     0.619730000000     0.021050000000    -0.447996   
O30      O      0.334360000000     0.705090000000     0.021620000000    -0.447912   
O31      O      0.289660000000     0.664420000000     0.021830000000    -0.448113   
O32      O      0.375000000000     0.660330000000     0.020830000000    -0.447992   
O33      O      0.663530000000     0.017490000000     0.615860000000    -0.448591   
O34      O      0.661250000000     0.017060000000     0.701230000000    -0.448397   
O35      O      0.705070000000     0.017370000000     0.659640000000    -0.448278   
O36      O      0.619660000000     0.017120000000     0.657380000000    -0.448051   
O37      O      0.619800000000     0.967600000000     0.660230000000    -0.448827   
O38      O      0.705190000000     0.967880000000     0.656460000000    -0.448687   
O39      O      0.664340000000     0.967560000000     0.701020000000    -0.448653   
O40      O      0.660600000000     0.967980000000     0.615610000000    -0.448524   
O41      O      0.326500000000     0.970620000000     0.621210000000    -0.450103   
O42      O      0.328550000000     0.969200000000     0.706610000000    -0.448702   
O43      O      0.285030000000     0.970750000000     0.664750000000    -0.449958   
O44      O      0.370460000000     0.969090000000     0.662650000000    -0.448484   
O45      O      0.371440000000     0.018640000000     0.664590000000    -0.449106   
O46      O      0.286020000000     0.020330000000     0.665300000000    -0.447443   
O47      O      0.329290000000     0.018790000000     0.707430000000    -0.449047   
O48      O      0.328620000000     0.020170000000     0.622000000000    -0.44728    
O49      O      0.324740000000     0.021550000000     0.372840000000    -0.448143   
O50      O      0.326940000000     0.021660000000     0.287440000000    -0.44798    
O51      O      0.283130000000     0.021810000000     0.329070000000    -0.447516   
O52      O      0.368600000000     0.021320000000     0.331210000000    -0.4474     
O53      O      0.368240000000     0.971820000000     0.328040000000    -0.449691   
O54      O      0.282940000000     0.972300000000     0.331960000000    -0.449668   
O55      O      0.323670000000     0.972180000000     0.287350000000    -0.449171   
O56      O      0.327570000000     0.972030000000     0.372740000000    -0.448845   
O57      O      0.661610000000     0.969930000000     0.366860000000    -0.449892   
O58      O      0.658170000000     0.970270000000     0.281560000000    -0.449814   
O59      O      0.702580000000     0.970140000000     0.322530000000    -0.448897   
O60      O      0.617150000000     0.970160000000     0.325980000000    -0.448716   
O61      O      0.617190000000     0.019670000000     0.323090000000    -0.448566   
O62      O      0.702540000000     0.019630000000     0.325700000000    -0.448439   
O63      O      0.661160000000     0.019770000000     0.281670000000    -0.447652   
O64      O      0.658540000000     0.019430000000     0.367130000000    -0.447588   
O65      O      0.972050000000     0.663340000000     0.622630000000    -0.448276   
O66      O      0.974600000000     0.661270000000     0.708010000000    -0.450234   
O67      O      0.973470000000     0.705000000000     0.666450000000    -0.449685   
O68      O      0.973230000000     0.619570000000     0.664740000000    -0.449424   
O69      O      0.022820000000     0.619430000000     0.663820000000    -0.448224   
O70      O      0.022960000000     0.704880000000     0.663430000000    -0.4481     
O71      O      0.024150000000     0.662500000000     0.706570000000    -0.446892   
O72      O      0.021600000000     0.661710000000     0.621150000000    -0.448686   
O73      O      0.019890000000     0.328250000000     0.618140000000    -0.447573   
O74      O      0.019240000000     0.326190000000     0.703590000000    -0.447891   
O75      O      0.018670000000     0.284760000000     0.659650000000    -0.448888   
O76      O      0.020480000000     0.370160000000     0.662150000000    -0.447176   
O77      O      0.970930000000     0.371240000000     0.660280000000    -0.450523   
O78      O      0.969100000000     0.285820000000     0.660630000000    -0.448804   
O79      O      0.969720000000     0.328770000000     0.703230000000    -0.44978    
O80      O      0.970290000000     0.328760000000     0.617840000000    -0.450151   
O81      O      0.018340000000     0.664810000000     0.373140000000    -0.448707   
O82      O      0.018800000000     0.661480000000     0.287840000000    -0.448608   
O83      O      0.018510000000     0.705810000000     0.328860000000    -0.448227   
O84      O      0.018570000000     0.620410000000     0.332130000000    -0.447941   
O85      O      0.969090000000     0.620390000000     0.328830000000    -0.449486   
O86      O      0.969000000000     0.705760000000     0.331600000000    -0.449187   
O87      O      0.969300000000     0.664420000000     0.287500000000    -0.448386   
O88      O      0.968840000000     0.661670000000     0.373000000000    -0.447917   
O89      O      0.969490000000     0.327120000000     0.369500000000    -0.449482   
O90      O      0.968450000000     0.330710000000     0.284150000000    -0.449204   
O91      O      0.968910000000     0.286280000000     0.325070000000    -0.449717   
O92      O      0.969020000000     0.371630000000     0.328680000000    -0.449276   
O93      O      0.018480000000     0.371650000000     0.325020000000    -0.447807   
O94      O      0.018440000000     0.286220000000     0.327460000000    -0.447671   
O95      O      0.017950000000     0.327710000000     0.283550000000    -0.447976   
O96      O      0.018990000000     0.330210000000     0.368950000000    -0.447656   
O97      O      0.992810000000     0.303210000000     0.036470000000    -0.448769   
O98      O      0.992510000000     0.302730000000     0.951030000000    -0.449895   
O99      O      0.035150000000     0.303920000000     0.993480000000    -0.449326   
O100     O      0.949750000000     0.302000000000     0.994030000000    -0.449593   
O101     O      0.948630000000     0.351550000000     0.992240000000    -0.450474   
O102     O      0.034030000000     0.353480000000     0.994710000000    -0.44769    
O103     O      0.992230000000     0.352320000000     0.950780000000    -0.450084   
O104     O      0.990040000000     0.352730000000     0.036180000000    -0.448537   
O105     O      0.999140000000     0.636620000000     0.954820000000    -0.451503   
O106     O      0.999640000000     0.637010000000     0.040260000000    -0.448867   
O107     O      0.956660000000     0.636440000000     0.997810000000    -0.450404   
O108     O      0.042090000000     0.637190000000     0.997240000000    -0.44855    
O109     O      0.041610000000     0.686720000000     0.999650000000    -0.448272   
O110     O      0.956270000000     0.685950000000     0.994940000000    -0.4495     
O111     O      0.996550000000     0.686500000000     0.039980000000    -0.448101   
O112     O      0.001330000000     0.686170000000     0.954660000000    -0.448106   
O113     O      0.993570000000     0.038950000000     0.352190000000    -0.448804   
O114     O      0.991280000000     0.953560000000     0.352920000000    -0.449889   
O115     O      0.035130000000     0.995140000000     0.353250000000    -0.448205   
O116     O      0.949710000000     0.997370000000     0.351850000000    -0.449915   
O117     O      0.950530000000     0.994250000000     0.302360000000    -0.449774   
O118     O      0.035900000000     0.997380000000     0.303720000000    -0.448726   
O119     O      0.994770000000     0.953120000000     0.303450000000    -0.449863   
O120     O      0.991690000000     0.038520000000     0.302640000000    -0.448222   
O121     O      0.953320000000     0.993250000000     0.636250000000    -0.449362   
O122     O      0.038690000000     0.995580000000     0.638440000000    -0.449191   
O123     O      0.997340000000     0.951890000000     0.638390000000    -0.450998   
O124     O      0.995040000000     0.037290000000     0.636320000000    -0.448037   
O125     O      0.993540000000     0.038450000000     0.685880000000    -0.449307   
O126     O      0.995420000000     0.953060000000     0.687920000000    -0.449518   
O127     O      0.037400000000     0.996890000000     0.687990000000    -0.447857   
O128     O      0.951980000000     0.995020000000     0.685790000000    -0.450742   
O129     O      0.637620000000     0.949780000000     0.990300000000    -0.449637   
O130     O      0.635890000000     0.035210000000     0.992030000000    -0.44823    
O131     O      0.637090000000     0.993360000000     0.948460000000    -0.450022   
O132     O      0.636400000000     0.991640000000     0.033860000000    -0.448529   
O133     O      0.685850000000     0.995320000000     0.034260000000    -0.448661   
O134     O      0.686650000000     0.991660000000     0.948880000000    -0.449432   
O135     O      0.685430000000     0.036150000000     0.989750000000    -0.448402   
O136     O      0.687100000000     0.950810000000     0.993410000000    -0.449871   
O137     O      0.301310000000     0.037420000000     0.996770000000    -0.447651   
O138     O      0.304040000000     0.951990000000     0.996760000000    -0.450279   
O139     O      0.302100000000     0.994590000000     0.039510000000    -0.448364   
O140     O      0.303250000000     0.994380000000     0.954090000000    -0.449972   
O141     O      0.352830000000     0.995030000000     0.954760000000    -0.449866   
O142     O      0.351580000000     0.997880000000     0.040140000000    -0.448937   
O143     O      0.353560000000     0.953610000000     0.998990000000    -0.449467   
O144     O      0.350870000000     0.038970000000     0.995890000000    -0.448922   


