data_structure

_audit_creation_method RASPA-1.0
_audit_creation_date 2023-6-5
_audit_author_name 'Poobodin Mano'

_cell_length_a    49.0141
_cell_length_b    48.94
_cell_length_c    29.3919
_cell_angle_alpha 89.9868
_cell_angle_beta  90.013
_cell_angle_gamma 119.953
_cell_volume      61087

_symmetry_cell_setting          triclinic
_symmetry_space_group_name_Hall 'P 1'
_symmetry_space_group_name_H-M  'P 1'
_symmetry_Int_Tables_number     1

_symmetry_equiv_pos_as_xyz 'x,y,z'

loop_
_atom_site_label
_atom_site_type_symbol
_atom_site_fract_x
_atom_site_fract_y
_atom_site_fract_z
_atom_site_charge
C1       C      0.844260000000     0.664670000000     0.543660000000     0.435655   
C2       C      0.815470000000     0.665920000000     0.711090000000     0.437151   
C3       C      0.771980000000     0.638910000000     0.603420000000     0.436035   
C4       C      0.888230000000     0.692170000000     0.649840000000     0.435801   
C5       C      0.147030000000     0.813640000000     0.881420000000     0.43343    
C6       C      0.177670000000     0.835510000000     0.713330000000     0.432993   
C7       C      0.220190000000     0.853460000000     0.821560000000     0.433392   
C8       C      0.104330000000     0.795430000000     0.773420000000     0.433204   
C9       C      0.511270000000     0.995730000000     0.883720000000     0.432798   
C10      C      0.479230000000     0.987550000000     0.051020000000     0.433987   
C11      C      0.437870000000     0.961780000000     0.940840000000     0.43608    
C12      C      0.552950000000     0.021230000000     0.992540000000     0.432799   
C13      C      0.146290000000     0.324550000000     0.392260000000     0.434105   
C14      C      0.173980000000     0.327530000000     0.223890000000     0.434219   
C15      C      0.218270000000     0.353940000000     0.330440000000     0.433699   
C16      C      0.101890000000     0.298070000000     0.285400000000     0.433591   
C17      C      0.842680000000     0.175680000000     0.052980000000     0.435964   
C18      C      0.813340000000     0.151930000000     0.221160000000     0.433816   
C19      C      0.769500000000     0.134000000000     0.114890000000     0.436306   
C20      C      0.886110000000     0.193540000000     0.159540000000     0.435676   
C21      C      0.478050000000     0.482460000000     0.559430000000     0.43702    
C22      C      0.506700000000     0.507320000000     0.391300000000     0.435057   
C23      C      0.551020000000     0.525610000000     0.497860000000     0.433735   
C24      C      0.434380000000     0.464550000000     0.453660000000     0.435663   
C25      C      0.150960000000     0.332560000000     0.724790000000     0.436559   
C26      C      0.173370000000     0.320360000000     0.891640000000     0.435687   
C27      C      0.190490000000     0.297250000000     0.782210000000     0.43437    
C28      C      0.134300000000     0.355730000000     0.835710000000     0.437452   
C29      C      0.331680000000     0.146840000000     0.724660000000     0.435852   
C30      C      0.324520000000     0.171290000000     0.556990000000     0.436708   
C31      C      0.299990000000     0.189050000000     0.663730000000     0.437796   
C32      C      0.355870000000     0.128700000000     0.617450000000     0.43689    
C33      C      0.001320000000     0.484040000000     0.058430000000     0.433345   
C34      C      0.994770000000     0.509000000000     0.890980000000     0.436685   
C35      C      0.971290000000     0.527060000000     0.999790000000     0.43689    
C36      C      0.025670000000     0.465930000000     0.949990000000     0.435021   
C37      C      0.663460000000     0.813760000000     0.387970000000     0.437187   
C38      C      0.657340000000     0.837290000000     0.219820000000     0.433931   
C39      C      0.631050000000     0.854750000000     0.325960000000     0.437874   
C40      C      0.689420000000     0.796670000000     0.280730000000     0.434621   
C41      C      0.839480000000     0.659400000000     0.211290000000     0.434269   
C42      C      0.816710000000     0.666840000000     0.043320000000     0.433256   
C43      C      0.797640000000     0.690620000000     0.150470000000     0.437739   
C44      C      0.858410000000     0.635300000000     0.103890000000     0.434777   
C45      C      0.508710000000     0.993170000000     0.551390000000     0.436766   
C46      C      0.479280000000     0.992920000000     0.383770000000     0.436812   
C47      C      0.464170000000     0.021390000000     0.491000000000     0.434245   
C48      C      0.523870000000     0.964950000000     0.444580000000     0.434534   
C49      C      0.323120000000     0.144960000000     0.056710000000     0.434316   
C50      C      0.327280000000     0.173520000000     0.224830000000     0.435123   
C51      C      0.353470000000     0.217560000000     0.117890000000     0.434159   
C52      C      0.297140000000     0.101230000000     0.163820000000     0.43424    
C53      C      0.480000000000     0.478080000000     0.891290000000     0.433469   
C54      C      0.501360000000     0.509400000000     0.059140000000     0.436236   
C55      C      0.520470000000     0.551630000000     0.951910000000     0.435863   
C56      C      0.460580000000     0.435310000000     0.998420000000     0.43674    
C57      C      0.176280000000     0.841710000000     0.380850000000     0.43532    
C58      C      0.147830000000     0.810820000000     0.214100000000     0.437396   
C59      C      0.132300000000     0.767740000000     0.322910000000     0.434524   
C60      C      0.191250000000     0.882600000000     0.271580000000     0.440193   
C61      C      0.999940000000     0.509990000000     0.558950000000     0.432941   
C62      C      0.992030000000     0.479130000000     0.391000000000     0.436305   
C63      C      0.965870000000     0.436680000000     0.498780000000     0.433593   
C64      C      0.026070000000     0.552860000000     0.451680000000     0.437569   
C65      C      0.807630000000     0.144410000000     0.553320000000     0.435286   
C66      C      0.832810000000     0.175190000000     0.720960000000     0.434226   
C67      C      0.849420000000     0.217520000000     0.612000000000     0.437298   
C68      C      0.790670000000     0.101660000000     0.660380000000     0.436927   
C69      C      0.658250000000     0.841490000000     0.887660000000     0.437656   
C70      C      0.653060000000     0.810930000000     0.719980000000     0.4343     
C71      C      0.627180000000     0.768070000000     0.827760000000     0.434257   
C72      C      0.684080000000     0.884060000000     0.779980000000     0.434431   
C73      C      0.743030000000     0.051060000000     0.668720000000     0.150978   
C74      C      0.792290000000     0.059390000000     0.696160000000     0.0756162  
C75      C      0.728140000000     0.020340000000     0.686850000000    -0.123892   
C76      C      0.698020000000     0.961860000000     0.744850000000    -0.0843605  
C77      C      0.777890000000     0.029240000000     0.715000000000    -0.0964619  
C78      C      0.729530000000     0.976610000000     0.730460000000     0.0281468  
C79      C      0.745370000000     0.009160000000     0.710760000000     0.0489217  
C80      C      0.683210000000     0.930970000000     0.761330000000     0.0703628  
C81      C      0.730350000000     0.929220000000     0.752740000000     0.0703995  
C82      C      0.745610000000     0.959710000000     0.734770000000    -0.0844957  
C83      C      0.722920000000     0.060500000000     0.641160000000    -0.216731   
C84      C      0.849150000000     0.260830000000     0.572530000000     0.150497   
C85      C      0.896750000000     0.265630000000     0.601390000000     0.0759633  
C86      C      0.866080000000     0.292020000000     0.556410000000    -0.124071   
C87      C      0.902040000000     0.362150000000     0.543160000000    -0.0847383  
C88      C      0.913830000000     0.296760000000     0.586290000000    -0.0962676  
C89      C      0.916510000000     0.343680000000     0.546270000000     0.0275505  
C90      C      0.898630000000     0.310470000000     0.563350000000     0.0494495  
C91      C      0.918670000000     0.392830000000     0.526200000000     0.0696531  
C92      C      0.964340000000     0.388450000000     0.517000000000     0.0700323  
C93      C      0.948100000000     0.357300000000     0.532580000000    -0.0840273  
C94      C      0.814460000000     0.242040000000     0.560570000000    -0.21613    
C95      C      0.074050000000     0.603430000000     0.441520000000     0.150725   
C96      C      0.024610000000     0.594820000000     0.414370000000     0.075503   
C97      C      0.088870000000     0.633710000000     0.421790000000    -0.12471    
C98      C      0.116950000000     0.689290000000     0.357190000000    -0.0846437  
C99      C      0.038860000000     0.624700000000     0.394770000000    -0.0975071  
C100     C      0.086990000000     0.676510000000     0.376870000000     0.0273994  
C101     C      0.071390000000     0.644520000000     0.397900000000     0.0498426  
C102     C      0.131580000000     0.719650000000     0.338760000000     0.0698971  
C103     C      0.087290000000     0.724790000000     0.357210000000     0.0703737  
C104     C      0.072140000000     0.694680000000     0.376420000000    -0.0845137  
C105     C      0.094590000000     0.594600000000     0.469160000000    -0.217253   
C106     C      0.568150000000     0.602230000000     0.943130000000     0.150829   
C107     C      0.519000000000     0.593510000000     0.914590000000     0.0747624  
C108     C      0.583080000000     0.632760000000     0.924300000000    -0.124196   
C109     C      0.613340000000     0.690690000000     0.865000000000    -0.0840747  
C110     C      0.533440000000     0.623450000000     0.895080000000    -0.0968357  
C111     C      0.581770000000     0.675990000000     0.879100000000     0.0273655  
C112     C      0.565930000000     0.643640000000     0.899510000000     0.0491493  
C113     C      0.628120000000     0.721400000000     0.847810000000     0.07027    
C114     C      0.580850000000     0.723050000000     0.855140000000     0.0699566  
C115     C      0.565610000000     0.692750000000     0.873770000000    -0.0845609  
C116     C      0.588190000000     0.593130000000     0.971500000000    -0.217861   
C117     C      0.199580000000     0.919650000000     0.213280000000     0.14744    
C118     C      0.228550000000     0.935850000000     0.282760000000     0.0787278  
C119     C      0.213280000000     0.951320000000     0.199640000000    -0.12228    
C120     C      0.234230000000     0.021760000000     0.193950000000    -0.0852057  
C121     C      0.243380000000     0.967360000000     0.269150000000    -0.0974374  
C122     C      0.251530000000     0.008470000000     0.211450000000     0.0276002  
C123     C      0.235410000000     0.975360000000     0.227490000000     0.0498584  
C124     C      0.249850000000     0.052810000000     0.178070000000     0.0702424  
C125     C      0.299290000000     0.057450000000     0.195170000000     0.0705994  
C126     C      0.284400000000     0.026670000000     0.212050000000    -0.0848998  
C127     C      0.184100000000     0.894480000000     0.176940000000    -0.196691   
C128     C      0.412720000000     0.384800000000     0.006930000000     0.151578   
C129     C      0.461840000000     0.393030000000     0.034840000000     0.0755609  
C130     C      0.397690000000     0.354110000000     0.025230000000    -0.12426    
C131     C      0.367340000000     0.295480000000     0.083260000000    -0.0837567  
C132     C      0.447300000000     0.362910000000     0.053790000000    -0.09673    
C133     C      0.398870000000     0.310270000000     0.068880000000     0.0275653  
C134     C      0.414780000000     0.342880000000     0.049330000000     0.0497425  
C135     C      0.352530000000     0.264540000000     0.099640000000     0.0703899  
C136     C      0.399670000000     0.262810000000     0.090750000000     0.0704233  
C137     C      0.414930000000     0.293340000000     0.072970000000    -0.0841441  
C138     C      0.392720000000     0.394250000000     0.979140000000    -0.217965   
C139     C      0.690450000000     0.825340000000     0.460940000000     0.151097   
C140     C      0.636270000000     0.786420000000     0.454330000000     0.0745596  
C141     C      0.687950000000     0.822430000000     0.508580000000    -0.12535    
C142     C      0.679770000000     0.801940000000     0.607540000000    -0.0851428  
C143     C      0.633490000000     0.782910000000     0.501440000000    -0.097879   
C144     C      0.656010000000     0.800530000000     0.579510000000     0.02735    
C145     C      0.659250000000     0.801610000000     0.529200000000     0.0498705  
C146     C      0.677810000000     0.804170000000     0.654640000000     0.0698868  
C147     C      0.628750000000     0.802320000000     0.647170000000     0.0703143  
C148     C      0.629920000000     0.799980000000     0.599940000000    -0.0847089  
C149     C      0.722910000000     0.846990000000     0.441600000000    -0.217119   
C150     C      0.634550000000     0.848960000000     0.956220000000     0.150148   
C151     C      0.684090000000     0.850960000000     0.958720000000     0.0745089  
C152     C      0.634360000000     0.849990000000     0.004070000000    -0.125486   
C153     C      0.683360000000     0.870740000000     0.105980000000    -0.0852656  
C154     C      0.684690000000     0.853000000000     0.006010000000    -0.0974728  
C155     C      0.657740000000     0.849650000000     0.079460000000     0.0274572  
C156     C      0.659180000000     0.851450000000     0.029180000000     0.0500707  
C157     C      0.682330000000     0.867040000000     0.153190000000     0.0700409  
C158     C      0.631150000000     0.822240000000     0.148300000000     0.0697927  
C159     C      0.631180000000     0.825610000000     0.101160000000    -0.0853964  
C160     C      0.607210000000     0.848910000000     0.932080000000    -0.215829   
C161     C      0.749640000000     0.692720000000     0.160650000000     0.151879   
C162     C      0.798800000000     0.733440000000     0.188770000000     0.0759939  
C163     C      0.734490000000     0.707700000000     0.180700000000    -0.124575   
C164     C      0.704310000000     0.734020000000     0.242680000000    -0.0843674  
C165     C      0.784170000000     0.748340000000     0.209440000000    -0.097064   
C166     C      0.735580000000     0.751450000000     0.227470000000     0.0274636  
C167     C      0.751580000000     0.735550000000     0.205870000000     0.0496878  
C168     C      0.689290000000     0.749460000000     0.260780000000     0.070071   
C169     C      0.735860000000     0.798890000000     0.252200000000     0.0698245  
C170     C      0.751290000000     0.784330000000     0.232720000000    -0.0847624  
C171     C      0.729690000000     0.663750000000     0.131950000000    -0.218172   
C172     C      0.583540000000     0.858390000000     0.333010000000     0.15094    
C173     C      0.632640000000     0.898550000000     0.362270000000     0.0753302  
C174     C      0.568690000000     0.874110000000     0.351600000000    -0.124988   
C175     C      0.539820000000     0.901680000000     0.414190000000    -0.0850526  
C176     C      0.618340000000     0.914490000000     0.380700000000    -0.0972737  
C177     C      0.570180000000     0.918740000000     0.395730000000     0.0273569  
C178     C      0.585940000000     0.902180000000     0.375990000000     0.0498334  
C179     C      0.524850000000     0.917500000000     0.430920000000     0.0695805  
C180     C      0.569580000000     0.966830000000     0.413280000000     0.0698121  
C181     C      0.585110000000     0.951750000000     0.395800000000    -0.084923   
C182     C      0.563340000000     0.829410000000     0.304430000000    -0.216876   
C183     C      0.966790000000     0.498660000000     0.819100000000     0.151656   
C184     C      0.021550000000     0.535970000000     0.824150000000     0.0749615  
C185     C      0.968590000000     0.501420000000     0.771430000000    -0.125126   
C186     C      0.975920000000     0.521290000000     0.672200000000    -0.084837   
C187     C      0.023670000000     0.539360000000     0.776960000000    -0.0972828  
C188     C      0.999650000000     0.521940000000     0.699520000000     0.0271374  
C189     C      0.997230000000     0.521320000000     0.749940000000     0.0499208  
C190     C      0.976980000000     0.518470000000     0.625030000000     0.0694915  
C191     C      0.025060000000     0.518180000000     0.631040000000     0.069561   
C192     C      0.024800000000     0.521110000000     0.678270000000    -0.0843229  
C193     C      0.934420000000     0.478210000000     0.839500000000    -0.216988   
C194     C      0.964800000000     0.464190000000     0.318110000000     0.150772   
C195     C      0.018610000000     0.478060000000     0.324460000000     0.0745796  
C196     C      0.967090000000     0.463480000000     0.270440000000    -0.125052   
C197     C      0.974330000000     0.449890000000     0.171680000000    -0.08504    
C198     C      0.021180000000     0.477020000000     0.277340000000    -0.0974364  
C199     C      0.998560000000     0.472090000000     0.199280000000     0.0268343  
C200     C      0.995520000000     0.470470000000     0.249670000000     0.0494918  
C201     C      0.976240000000     0.453560000000     0.124470000000     0.0692083  
C202     C      0.026120000000     0.499890000000     0.130960000000     0.0686964  
C203     C      0.025010000000     0.496880000000     0.178290000000    -0.0845425  
C204     C      0.932590000000     0.454390000000     0.337570000000    -0.216756   
C205     C      0.972410000000     0.571320000000     0.039100000000     0.151079   
C206     C      0.925070000000     0.530460000000     0.006380000000     0.0746991  
C207     C      0.956140000000     0.586740000000     0.053190000000    -0.124767   
C208     C      0.921450000000     0.623060000000     0.060020000000    -0.0843939  
C209     C      0.908620000000     0.545460000000     0.020080000000    -0.0975213  
C210     C      0.906800000000     0.590060000000     0.059550000000     0.0276059  
C211     C      0.924070000000     0.573950000000     0.043820000000     0.0499237  
C212     C      0.905100000000     0.637790000000     0.075570000000     0.0706937  
C213     C      0.859780000000     0.588120000000     0.089470000000     0.0704042  
C214     C      0.875580000000     0.572630000000     0.074730000000    -0.0847219  
C215     C      0.006500000000     0.585910000000     0.053850000000    -0.216771   
C216     C      0.359350000000     0.158260000000     0.797050000000     0.150656   
C217     C      0.305040000000     0.119580000000     0.791360000000     0.0737432  
C218     C      0.357260000000     0.155520000000     0.844730000000    -0.1251     
C219     C      0.299860000000     0.133970000000     0.936730000000    -0.0845179  
C220     C      0.302660000000     0.116210000000     0.838510000000    -0.0978017  
C221     C      0.325780000000     0.134250000000     0.916190000000     0.0274808  
C222     C      0.328680000000     0.134950000000     0.865840000000     0.0498911  
C223     C      0.298860000000     0.136530000000     0.983920000000     0.0704089  
C224     C      0.347830000000     0.138180000000     0.991270000000     0.0699811  
C225     C      0.349630000000     0.135750000000     0.944140000000    -0.0847394  
C226     C      0.391680000000     0.179620000000     0.777120000000    -0.216797   
C227     C      0.346290000000     0.204040000000     0.489370000000     0.149124   
C228     C      0.299290000000     0.154070000000     0.485600000000     0.0739944  
C229     C      0.346710000000     0.205850000000     0.441600000000    -0.12549    
C230     C      0.352580000000     0.187450000000     0.343850000000    -0.0850917  
C231     C      0.298780000000     0.156050000000     0.438340000000    -0.0974152  
C232     C      0.325010000000     0.182270000000     0.365590000000     0.0276702  
C233     C      0.323220000000     0.181610000000     0.415850000000     0.0499002  
C234     C      0.353220000000     0.185260000000     0.296580000000     0.0707534  
C235     C      0.300580000000     0.174900000000     0.291730000000     0.0705045  
C236     C      0.298940000000     0.176330000000     0.339050000000    -0.0852676  
C237     C      0.371520000000     0.232590000000     0.514370000000    -0.21389    
C238     C      0.358320000000     0.080790000000     0.607950000000     0.151333   
C239     C      0.398940000000     0.130040000000     0.579850000000     0.0753221  
C240     C      0.373640000000     0.065720000000     0.588670000000    -0.124536   
C241     C      0.400890000000     0.035260000000     0.529020000000    -0.083889   
C242     C      0.414120000000     0.115470000000     0.559790000000    -0.0972577  
C243     C      0.417860000000     0.066920000000     0.542990000000     0.0273772  
C244     C      0.401590000000     0.082860000000     0.563810000000     0.0495302  
C245     C      0.416680000000     0.020400000000     0.511570000000     0.0696099  
C246     C      0.465560000000     0.067800000000     0.518250000000     0.0701282  
C247     C      0.450680000000     0.083080000000     0.537220000000    -0.0847071  
C248     C      0.329210000000     0.060790000000     0.636290000000    -0.218433   
C249     C      0.135830000000     0.398900000000     0.877940000000     0.150432   
C250     C      0.087910000000     0.358330000000     0.846220000000     0.0752197  
C251     C      0.119860000000     0.414110000000     0.894090000000    -0.124772   
C252     C      0.087030000000     0.451320000000     0.905950000000    -0.0848013  
C253     C      0.071750000000     0.373330000000     0.861490000000    -0.0966804  
C254     C      0.071020000000     0.418340000000     0.902280000000     0.0276119  
C255     C      0.087680000000     0.401690000000     0.885620000000     0.0495039  
C256     C      0.071660000000     0.466660000000     0.922830000000     0.0705429  
C257     C      0.024240000000     0.417890000000     0.930660000000     0.0704291  
C258     C      0.039170000000     0.401660000000     0.915060000000    -0.0841935  
C259     C      0.170070000000     0.412900000000     0.891590000000    -0.216291   
C260     C      0.297570000000     0.237080000000     0.671860000000     0.150885   
C261     C      0.256090000000     0.187820000000     0.698570000000     0.075794   
C262     C      0.281790000000     0.252150000000     0.689460000000    -0.124319   
C263     C      0.253630000000     0.282310000000     0.747570000000    -0.0846731  
C264     C      0.240360000000     0.202390000000     0.716800000000    -0.0970145  
C265     C      0.236600000000     0.251050000000     0.732080000000     0.0274263  
C266     C      0.253140000000     0.235000000000     0.712690000000     0.0495796  
C267     C      0.237840000000     0.297350000000     0.764120000000     0.0699567  
C268     C      0.188630000000     0.250920000000     0.753190000000     0.0695538  
C269     C      0.203620000000     0.235430000000     0.735190000000    -0.0844816  
C270     C      0.327410000000     0.257100000000     0.644940000000    -0.216403   
C271     C      0.460790000000     0.492360000000     0.631930000000     0.150156   
C272     C      0.478380000000     0.455120000000     0.625590000000     0.0743142  
C273     C      0.459700000000     0.488980000000     0.679470000000    -0.125149   
C274     C      0.494960000000     0.467400000000     0.772370000000    -0.0847923  
C275     C      0.476950000000     0.451100000000     0.672660000000    -0.0977936  
C276     C      0.469380000000     0.467100000000     0.750610000000     0.0271684  
C277     C      0.468290000000     0.468690000000     0.700250000000     0.0495908  
C278     C      0.497550000000     0.469810000000     0.819710000000     0.0697723  
C279     C      0.449330000000     0.469920000000     0.824620000000     0.0690948  
C280     C      0.445990000000     0.467500000000     0.777440000000    -0.0856869  
C281     C      0.448910000000     0.513140000000     0.612380000000    -0.214644   
C282     C      0.488550000000     0.524910000000     0.131270000000     0.150149   
C283     C      0.529540000000     0.512390000000     0.125950000000     0.073639   
C284     C      0.491780000000     0.526490000000     0.178930000000    -0.125031   
C285     C      0.517380000000     0.494610000000     0.271500000000    -0.0849542  
C286     C      0.533380000000     0.514330000000     0.172980000000    -0.0982425  
C287     C      0.515150000000     0.519110000000     0.250500000000     0.0275105  
C288     C      0.513800000000     0.520520000000     0.200150000000     0.0496647  
C289     C      0.515610000000     0.491670000000     0.318750000000     0.070565   
C290     C      0.510970000000     0.537470000000     0.325260000000     0.070085   
C291     C      0.512520000000     0.541040000000     0.278000000000    -0.0852293  
C292     C      0.465310000000     0.533420000000     0.111200000000    -0.216538   
C293     C      0.858490000000     0.164330000000     0.980200000000     0.150658   
C294     C      0.841670000000     0.202170000000     0.986260000000     0.0736449  
C295     C      0.858410000000     0.166690000000     0.932520000000    -0.125115   
C296     C      0.821000000000     0.186980000000     0.840870000000    -0.0845852  
C297     C      0.841950000000     0.205190000000     0.939070000000    -0.097717   
C298     C      0.846930000000     0.187160000000     0.861230000000     0.0274508  
C299     C      0.849520000000     0.186700000000     0.911570000000     0.049708   
C300     C      0.817160000000     0.184060000000     0.793690000000     0.0700036  
C301     C      0.864770000000     0.182990000000     0.786100000000     0.0699952  
C302     C      0.869310000000     0.185860000000     0.833130000000    -0.0850704  
C303     C      0.870490000000     0.143690000000     0.999860000000    -0.217007   
C304     C      0.777050000000     0.137810000000     0.484420000000     0.14617    
C305     C      0.824420000000     0.135480000000     0.482250000000     0.0733793  
C306     C      0.776290000000     0.137480000000     0.436540000000    -0.125006   
C307     C      0.805350000000     0.117650000000     0.334550000000    -0.0855394  
C308     C      0.823430000000     0.134100000000     0.434910000000    -0.0972795  
C309     C      0.800600000000     0.138520000000     0.361330000000     0.0273954  
C310     C      0.799810000000     0.136180000000     0.411580000000     0.0490255  
C311     C      0.808370000000     0.121770000000     0.287440000000     0.0698344  
C312     C      0.801930000000     0.166590000000     0.292860000000     0.0694105  
C313     C      0.798260000000     0.162810000000     0.339940000000    -0.0854171  
C314     C      0.749620000000     0.137680000000     0.508370000000    -0.212304   
C315     C      0.164310000000     0.360840000000     0.652580000000     0.150672   
C316     C      0.122690000000     0.307610000000     0.657880000000     0.0746923  
C317     C      0.161390000000     0.359110000000     0.604850000000    -0.12476    
C318     C      0.141120000000     0.353010000000     0.505480000000    -0.0847287  
C319     C      0.119190000000     0.305640000000     0.610760000000    -0.097527   
C320     C      0.138080000000     0.328360000000     0.533180000000     0.0275375  
C321     C      0.139240000000     0.331210000000     0.583570000000     0.0499807  
C322     C      0.142610000000     0.350840000000     0.458240000000     0.070049   
C323     C      0.137210000000     0.300100000000     0.465030000000     0.0705092  
C324     C      0.135460000000     0.301420000000     0.512320000000    -0.0843748  
C325     C      0.187720000000     0.392500000000     0.672700000000    -0.216559   
C326     C      0.160220000000     0.291860000000     0.963540000000     0.15097    
C327     C      0.200660000000     0.345640000000     0.958980000000     0.0729379  
C328     C      0.162550000000     0.293490000000     0.011310000000    -0.125132   
C329     C      0.181720000000     0.300020000000     0.111240000000    -0.084763   
C330     C      0.203590000000     0.347550000000     0.006160000000    -0.0985553  
C331     C      0.184140000000     0.324320000000     0.083320000000     0.027247   
C332     C      0.183780000000     0.321630000000     0.032970000000     0.0497351  
C333     C      0.179470000000     0.301970000000     0.158380000000     0.0699674  
C334     C      0.182820000000     0.351800000000     0.151040000000     0.0703194  
C335     C      0.185310000000     0.350690000000     0.103860000000    -0.0846831  
C336     C      0.137900000000     0.259990000000     0.942960000000    -0.217386   
C337     C      0.936660000000     0.241160000000     0.169620000000     0.150939   
C338     C      0.927810000000     0.191480000000     0.196270000000     0.074809   
C339     C      0.967060000000     0.255800000000     0.188800000000    -0.123948   
C340     C      0.024830000000     0.285140000000     0.248530000000    -0.083714   
C341     C      0.957590000000     0.205600000000     0.216140000000    -0.0965635  
C342     C      0.010020000000     0.253680000000     0.233600000000     0.0278746  
C343     C      0.977800000000     0.238210000000     0.212830000000     0.0491235  
C344     C      0.055430000000     0.299560000000     0.266010000000     0.0704897  
C345     C      0.056730000000     0.252130000000     0.257380000000     0.0705058  
C346     C      0.026560000000     0.237260000000     0.238450000000    -0.0841325  
C347     C      0.927690000000     0.261700000000     0.142200000000    -0.218324   
C348     C      0.382720000000     0.459670000000     0.446510000000     0.149404   
C349     C      0.392930000000     0.420460000000     0.416610000000     0.0742757  
C350     C      0.352450000000     0.443840000000     0.427080000000    -0.124361   
C351     C      0.296990000000     0.416950000000     0.362990000000    -0.0846749  
C352     C      0.362930000000     0.404370000000     0.397340000000    -0.0966952  
C353     C      0.310390000000     0.399750000000     0.380820000000     0.0274411  
C354     C      0.342390000000     0.416220000000     0.401780000000     0.049236   
C355     C      0.266410000000     0.401270000000     0.345570000000     0.0700129  
C356     C      0.262250000000     0.351800000000     0.360930000000     0.0700974  
C357     C      0.292670000000     0.366740000000     0.379090000000    -0.0841528  
C358     C      0.390580000000     0.488060000000     0.476000000000    -0.214735   
C359     C      0.540530000000     0.019310000000     0.618680000000     0.148637   
C360     C      0.495160000000     0.968150000000     0.623270000000     0.0741027  
C361     C      0.543210000000     0.019790000000     0.666460000000    -0.125318   
C362     C      0.524710000000     0.022310000000     0.765200000000    -0.0853318  
C363     C      0.497960000000     0.968000000000     0.670410000000    -0.097372   
C364     C      0.522410000000     0.995950000000     0.743010000000     0.0273561  
C365     C      0.521600000000     0.994340000000     0.692610000000     0.0497237  
C366     C      0.521900000000     0.022230000000     0.812460000000     0.0695056  
C367     C      0.516610000000     0.971420000000     0.816640000000     0.0682937  
C368     C      0.518840000000     0.970520000000     0.769300000000    -0.0857383  
C369     C      0.565470000000     0.047920000000     0.593460000000    -0.215155   
C370     C      0.448220000000     0.966110000000     0.316220000000     0.150106   
C371     C      0.493500000000     0.017310000000     0.311460000000     0.0740023  
C372     C      0.446290000000     0.964940000000     0.268340000000    -0.12491    
C373     C      0.465590000000     0.961620000000     0.170000000000    -0.0846357  
C374     C      0.491370000000     0.016830000000     0.264170000000    -0.0976072  
C375     C      0.467760000000     0.988120000000     0.191650000000     0.0278516  
C376     C      0.468170000000     0.990130000000     0.242050000000     0.0503004  
C377     C      0.468530000000     0.961390000000     0.122720000000     0.0702285  
C378     C      0.473770000000     0.012150000000     0.117620000000     0.0698549  
C379     C      0.471370000000     0.013330000000     0.164850000000    -0.0852123  
C380     C      0.422690000000     0.938010000000     0.341590000000    -0.216201   
C381     C      0.717920000000     0.129470000000     0.107900000000     0.150439   
C382     C      0.727990000000     0.090320000000     0.077390000000     0.0750158  
C383     C      0.687440000000     0.113510000000     0.089050000000    -0.124309   
C384     C      0.630610000000     0.085560000000     0.026990000000    -0.0841969  
C385     C      0.697900000000     0.074210000000     0.058550000000    -0.0967559  
C386     C      0.644900000000     0.068900000000     0.043770000000     0.0273878  
C387     C      0.677200000000     0.085820000000     0.063810000000     0.0495543  
C388     C      0.599980000000     0.069300000000     0.009620000000     0.0697714  
C389     C      0.597470000000     0.020390000000     0.023410000000     0.0696155  
C390     C      0.627870000000     0.035880000000     0.041560000000    -0.084058   
C391     C      0.726060000000     0.157990000000     0.137240000000    -0.216692   
C392     C      0.167610000000     0.859980000000     0.453350000000     0.151037   
C393     C      0.202600000000     0.839680000000     0.447250000000     0.0738906  
C394     C      0.170190000000     0.860140000000     0.501010000000    -0.124826   
C395     C      0.188650000000     0.821570000000     0.593840000000    -0.0840332  
C396     C      0.205920000000     0.840260000000     0.494480000000    -0.0968489  
C397     C      0.189660000000     0.847710000000     0.572590000000     0.0273     
C398     C      0.188930000000     0.849710000000     0.522070000000     0.0495128  
C399     C      0.185820000000     0.818390000000     0.641170000000     0.0696863  
C400     C      0.186350000000     0.866930000000     0.647200000000     0.0699004  
C401     C      0.189310000000     0.870910000000     0.600070000000    -0.0848541  
C402     C      0.148710000000     0.873960000000     0.433630000000    -0.216695   
C403     C      0.125060000000     0.818920000000     0.146220000000     0.141131   
C404     C      0.154730000000     0.792400000000     0.143220000000     0.0741975  
C405     C      0.120480000000     0.815190000000     0.098890000000    -0.120173   
C406     C      0.137510000000     0.829630000000     0.000220000000    -0.084576   
C407     C      0.151380000000     0.789570000000     0.096040000000    -0.0955408  
C408     C      0.134710000000     0.802960000000     0.022390000000     0.0281402  
C409     C      0.134540000000     0.801490000000     0.073110000000     0.0471756  
C410     C      0.140380000000     0.832180000000     0.953010000000     0.0703993  
C411     C      0.137380000000     0.782430000000     0.948350000000     0.0699527  
C412     C      0.134100000000     0.778940000000     0.995640000000    -0.0845628  
C413     C      0.118380000000     0.843100000000     0.168610000000    -0.188318   
C414     C      0.396130000000     0.917870000000     0.899710000000     0.150851   
C415     C      0.388970000000     0.959230000000     0.928910000000     0.0753998  
C416     C      0.365130000000     0.902740000000     0.882860000000    -0.124001   
C417     C      0.295180000000     0.866410000000     0.867770000000    -0.0841334  
C418     C      0.358020000000     0.944320000000     0.912930000000    -0.0959075  
C419     C      0.312610000000     0.899410000000     0.871420000000     0.027601   
C420     C      0.345580000000     0.915660000000     0.889490000000     0.0495007  
C421     C      0.264700000000     0.851570000000     0.849940000000     0.0701896  
C422     C      0.267330000000     0.900890000000     0.840640000000     0.0701409  
C423     C      0.298220000000     0.916590000000     0.857190000000    -0.0838181  
C424     C      0.416110000000     0.903190000000     0.887840000000    -0.216523   
C425     C      0.810750000000     0.692470000000     0.778680000000     0.149311   
C426     C      0.803500000000     0.640650000000     0.782730000000     0.0743538  
C427     C      0.808760000000     0.692880000000     0.826510000000    -0.124757   
C428     C      0.783860000000     0.642470000000     0.928820000000    -0.0853069  
C429     C      0.800840000000     0.640470000000     0.829860000000    -0.0975825  
C430     C      0.805260000000     0.668350000000     0.902850000000     0.0271267  
C431     C      0.804350000000     0.667060000000     0.852400000000     0.0497151  
C432     C      0.787290000000     0.642830000000     0.976040000000     0.0689224  
C433     C      0.831970000000     0.694160000000     0.972570000000     0.069705   
C434     C      0.829050000000     0.694690000000     0.925380000000    -0.0847033  
C435     C      0.814930000000     0.721380000000     0.753670000000    -0.215784   
C436     C      0.848340000000     0.637520000000     0.476380000000     0.14923    
C437     C      0.854980000000     0.689070000000     0.471400000000     0.0725085  
C438     C      0.849310000000     0.636360000000     0.428530000000    -0.125222   
C439     C      0.873130000000     0.684910000000     0.325100000000    -0.0853665  
C440     C      0.856790000000     0.688570000000     0.424180000000    -0.0981629  
C441     C      0.851480000000     0.659720000000     0.351830000000     0.027215   
C442     C      0.853030000000     0.661710000000     0.402180000000     0.0495056  
C443     C      0.869490000000     0.683850000000     0.277910000000     0.069994   
C444     C      0.823890000000     0.633250000000     0.282930000000     0.0700615  
C445     C      0.827070000000     0.633370000000     0.330170000000    -0.0849666  
C446     C      0.845190000000     0.609190000000     0.501900000000    -0.216036   
C447     C      0.728710000000     0.640330000000     0.564670000000     0.149511   
C448     C      0.722190000000     0.592760000000     0.596810000000     0.0736293  
C449     C      0.697140000000     0.623970000000     0.549970000000    -0.12408    
C450     C      0.626200000000     0.588960000000     0.541710000000    -0.0842755  
C451     C      0.690870000000     0.576280000000     0.582620000000    -0.0967966  
C452     C      0.644610000000     0.574380000000     0.542480000000     0.0273914  
C453     C      0.677910000000     0.591750000000     0.558730000000     0.0492795  
C454     C      0.595180000000     0.572500000000     0.525990000000     0.0700739  
C455     C      0.599660000000     0.527190000000     0.512300000000     0.0698157  
C456     C      0.630900000000     0.543100000000     0.527260000000    -0.0843438  
C457     C      0.747970000000     0.674710000000     0.551000000000    -0.215869   
C458     C      0.940630000000     0.738090000000     0.655220000000     0.149752   
C459     C      0.928890000000     0.689140000000     0.688740000000     0.0741089  
C460     C      0.970900000000     0.752310000000     0.674650000000    -0.124445   
C461     C      0.026550000000     0.781400000000     0.738440000000    -0.0844397  
C462     C      0.958890000000     0.702820000000     0.708030000000    -0.0964477  
C463     C      0.012250000000     0.750220000000     0.722620000000     0.027733   
C464     C      0.980220000000     0.734900000000     0.701750000000     0.0491133  
C465     C      0.057140000000     0.795990000000     0.755900000000     0.0700285  
C466     C      0.059590000000     0.749350000000     0.744340000000     0.0701448  
C467     C      0.029140000000     0.734140000000     0.726240000000    -0.0840415  
C468     C      0.933610000000     0.758310000000     0.623690000000    -0.215671   
H1       H      0.658750000000     0.920450000000     0.771540000000     0.0241688  
H2       H      0.817470000000     0.074110000000     0.701370000000     0.0233308  
H3       H      0.769710000000     0.969500000000     0.723460000000     0.0483655  
H4       H      0.792390000000     0.022190000000     0.733700000000     0.0513958  
H5       H      0.684660000000     0.974000000000     0.743730000000     0.0485246  
H6       H      0.703160000000     0.004970000000     0.681170000000     0.0579244  
H7       H      0.743690000000     0.917040000000     0.754970000000     0.0250084  
H8       H      0.735030000000     0.072190000000     0.609010000000     0.0817905  
H9       H      0.700070000000     0.039740000000     0.631280000000     0.0684635  
H10      H      0.717720000000     0.076490000000     0.661460000000     0.0829202  
H11      H      0.906400000000     0.406110000000     0.524590000000     0.0240688  
H12      H      0.909670000000     0.256290000000     0.619360000000     0.0236781  
H13      H      0.960300000000     0.344000000000     0.533260000000     0.0493117  
H14      H      0.938820000000     0.310030000000     0.593350000000     0.052572   
H15      H      0.878040000000     0.353320000000     0.554350000000     0.0473896  
H16      H      0.853810000000     0.301470000000     0.537170000000     0.0571125  
H17      H      0.988730000000     0.398030000000     0.506960000000     0.025451   
H18      H      0.799980000000     0.238400000000     0.591420000000     0.0827347  
H19      H      0.807670000000     0.254320000000     0.535020000000     0.0671061  
H20      H      0.808730000000     0.219020000000     0.545330000000     0.0822794  
H21      H      0.154860000000     0.728660000000     0.324280000000     0.0250021  
H22      H      0.999360000000     0.580330000000     0.409730000000     0.0238856  
H23      H      0.049180000000     0.686060000000     0.391690000000     0.0491651  
H24      H      0.024330000000     0.631830000000     0.376270000000     0.0523924  
H25      H      0.129100000000     0.675930000000     0.355760000000     0.0481505  
H26      H      0.114000000000     0.649120000000     0.426040000000     0.0580858  
H27      H      0.075040000000     0.738090000000     0.358160000000     0.0254538  
H28      H      0.098540000000     0.577280000000     0.450140000000     0.0843636  
H29      H      0.118070000000     0.615360000000     0.476440000000     0.0689951  
H30      H      0.083550000000     0.584830000000     0.502660000000     0.0856966  
H31      H      0.652630000000     0.731900000000     0.837890000000     0.0249914  
H32      H      0.493860000000     0.578720000000     0.909160000000     0.0224444  
H33      H      0.541460000000     0.683000000000     0.884810000000     0.0474441  
H34      H      0.519000000000     0.630250000000     0.875700000000     0.0509268  
H35      H      0.626770000000     0.678640000000     0.866920000000     0.0483111  
H36      H      0.608030000000     0.648240000000     0.930080000000     0.0578887  
H37      H      0.567450000000     0.735120000000     0.852180000000     0.0237418  
H38      H      0.593410000000     0.576880000000     0.951930000000     0.0847874  
H39      H      0.611030000000     0.614010000000     0.981110000000     0.0691023  
H40      H      0.576000000000     0.581870000000     0.003800000000     0.0842061  
H41      H      0.235560000000     0.062300000000     0.165130000000     0.0254832  
H42      H      0.234470000000     0.930260000000     0.315760000000     0.0144808  
H43      H      0.298560000000     0.017010000000     0.224800000000     0.0506398  
H44      H      0.260660000000     0.985390000000     0.291300000000     0.0535387  
H45      H      0.208740000000     0.008320000000     0.192930000000     0.049582   
H46      H      0.208410000000     0.957110000000     0.166100000000     0.0589671  
H47      H      0.324800000000     0.070710000000     0.196190000000     0.0263616  
H48      H      0.158220000000     0.876770000000     0.180300000000     0.0527753  
H49      H      0.187050000000     0.905330000000     0.142710000000     0.0667351  
H50      H      0.196850000000     0.881020000000     0.175260000000     0.0777563  
H51      H      0.328070000000     0.253970000000     0.109850000000     0.0257051  
H52      H      0.487000000000     0.407670000000     0.040220000000     0.0231272  
H53      H      0.439020000000     0.303150000000     0.061610000000     0.0483964  
H54      H      0.461690000000     0.355820000000     0.072690000000     0.0516845  
H55      H      0.354000000000     0.307630000000     0.082180000000     0.0488377  
H56      H      0.372710000000     0.338780000000     0.019500000000     0.0585117  
H57      H      0.413030000000     0.250650000000     0.092790000000     0.0255345  
H58      H      0.404800000000     0.405610000000     0.946820000000     0.085098   
H59      H      0.369750000000     0.373540000000     0.969550000000     0.0700724  
H60      H      0.387740000000     0.410510000000     0.999140000000     0.08435    
H61      H      0.697070000000     0.805900000000     0.674960000000     0.0249163  
H62      H      0.615120000000     0.772010000000     0.434660000000     0.0240995  
H63      H      0.611080000000     0.799030000000     0.579510000000     0.0494767  
H64      H      0.611010000000     0.765960000000     0.516050000000     0.0519318  
H65      H      0.700050000000     0.801810000000     0.593160000000     0.0476031  
H66      H      0.708340000000     0.836940000000     0.529590000000     0.058729   
H67      H      0.608560000000     0.802720000000     0.661450000000     0.0254215  
H68      H      0.724900000000     0.869670000000     0.430920000000     0.0846711  
H69      H      0.741710000000     0.852420000000     0.467070000000     0.0687103  
H70      H      0.727700000000     0.835530000000     0.412510000000     0.0855304  
H71      H      0.702850000000     0.883590000000     0.172460000000     0.0255019  
H72      H      0.704120000000     0.851110000000     0.942780000000     0.0253108  
H73      H      0.610960000000     0.808780000000     0.081670000000     0.0492991  
H74      H      0.704480000000     0.854330000000     0.024420000000     0.0534061  
H75      H      0.704200000000     0.889790000000     0.090290000000     0.0494692  
H76      H      0.614820000000     0.849650000000     0.021900000000     0.0584634  
H77      H      0.610410000000     0.802830000000     0.163660000000     0.0236322  
H78      H      0.591330000000     0.825280000000     0.917320000000     0.0841742  
H79      H      0.592830000000     0.854400000000     0.955570000000     0.0683294  
H80      H      0.616010000000     0.867400000000     0.905340000000     0.086088   
H81      H      0.664980000000     0.735080000000     0.271450000000     0.0249225  
H82      H      0.824030000000     0.744110000000     0.193640000000     0.0233991  
H83      H      0.775190000000     0.799100000000     0.220880000000     0.0481849  
H84      H      0.798550000000     0.769490000000     0.229040000000     0.0513258  
H85      H      0.691310000000     0.708530000000     0.240810000000     0.0484122  
H86      H      0.709430000000     0.697910000000     0.175630000000     0.0582571  
H87      H      0.748890000000     0.824390000000     0.254960000000     0.024456   
H88      H      0.724740000000     0.642190000000     0.151070000000     0.0848207  
H89      H      0.706720000000     0.661650000000     0.122780000000     0.0694213  
H90      H      0.741800000000     0.665040000000     0.099420000000     0.0849624  
H91      H      0.501260000000     0.903310000000     0.444450000000     0.0241574  
H92      H      0.657730000000     0.908870000000     0.368120000000     0.0241773  
H93      H      0.608400000000     0.965980000000     0.381470000000     0.0489153  
H94      H      0.632660000000     0.936040000000     0.399540000000     0.052112   
H95      H      0.527600000000     0.876170000000     0.415850000000     0.0479968  
H96      H      0.543730000000     0.864780000000     0.346030000000     0.0579892  
H97      H      0.581890000000     0.992380000000     0.412060000000     0.0245742  
H98      H      0.558180000000     0.807800000000     0.323600000000     0.083988   
H99      H      0.540430000000     0.827440000000     0.295310000000     0.0686544  
H100     H      0.575320000000     0.830600000000     0.271810000000     0.0852376  
H101     H      0.957770000000     0.517380000000     0.605290000000     0.0249811  
H102     H      0.043140000000     0.549700000000     0.843240000000     0.0241618  
H103     H      0.043570000000     0.521390000000     0.698100000000     0.0493339  
H104     H      0.046160000000     0.555610000000     0.761680000000     0.0520529  
H105     H      0.956350000000     0.522460000000     0.687200000000     0.0481449  
H106     H      0.947680000000     0.487480000000     0.751080000000     0.0590484  
H107     H      0.044550000000     0.516750000000     0.616170000000     0.0245717  
H108     H      0.931040000000     0.490000000000     0.869490000000     0.0849498  
H109     H      0.915440000000     0.474070000000     0.815020000000     0.0689362  
H110     H      0.931270000000     0.454880000000     0.849170000000     0.0847417  
H111     H      0.956620000000     0.436180000000     0.104520000000     0.0250101  
H112     H      0.039700000000     0.484320000000     0.344010000000     0.0243999  
H113     H      0.044240000000     0.514640000000     0.198350000000     0.0488356  
H114     H      0.043430000000     0.481860000000     0.262660000000     0.0521289  
H115     H      0.953750000000     0.430010000000     0.186460000000     0.0478439  
H116     H      0.946780000000     0.458030000000     0.249510000000     0.0585604  
H117     H      0.046610000000     0.519960000000     0.116240000000     0.0239903  
H118     H      0.931440000000     0.475530000000     0.348370000000     0.084203   
H119     H      0.913600000000     0.441520000000     0.312160000000     0.0686097  
H120     H      0.927320000000     0.437980000000     0.366610000000     0.0854924  
H121     H      0.917360000000     0.663350000000     0.075150000000     0.0261006  
H122     H      0.911910000000     0.508620000000     0.987530000000     0.0217194  
H123     H      0.863420000000     0.547120000000     0.075860000000     0.0485485  
H124     H      0.883920000000     0.534840000000     0.011410000000     0.0515569  
H125     H      0.945350000000     0.637580000000     0.047910000000     0.0493456  
H126     H      0.968360000000     0.608320000000     0.072790000000     0.0589215  
H127     H      0.835660000000     0.573670000000     0.100880000000     0.0252236  
H128     H      0.022280000000     0.595990000000     0.023970000000     0.0856297  
H129     H      0.013260000000     0.605400000000     0.078650000000     0.0700589  
H130     H      0.010520000000     0.568040000000     0.071130000000     0.0861448  
H131     H      0.278740000000     0.137050000000     0.998240000000     0.0258394  
H132     H      0.283690000000     0.105210000000     0.772060000000     0.0235968  
H133     H      0.369810000000     0.135470000000     0.929680000000     0.04844    
H134     H      0.280260000000     0.099420000000     0.853490000000     0.0520381  
H135     H      0.280970000000     0.133020000000     0.916400000000     0.0496058  
H136     H      0.377860000000     0.170010000000     0.865380000000     0.0589496  
H137     H      0.367110000000     0.139910000000     0.011540000000     0.025776   
H138     H      0.393860000000     0.202430000000     0.766710000000     0.0840514  
H139     H      0.410670000000     0.184810000000     0.802140000000     0.0688269  
H140     H      0.396000000000     0.168040000000     0.747720000000     0.0846738  
H141     H      0.374770000000     0.188610000000     0.281160000000     0.0256292  
H142     H      0.280360000000     0.132990000000     0.501040000000     0.0249134  
H143     H      0.277330000000     0.172520000000     0.354790000000     0.0497216  
H144     H      0.280020000000     0.136880000000     0.419380000000     0.0533736  
H145     H      0.373200000000     0.192060000000     0.363380000000     0.0499811  
H146     H      0.365280000000     0.226290000000     0.424340000000     0.0587464  
H147     H      0.279690000000     0.169730000000     0.272420000000     0.0259478  
H148     H      0.389730000000     0.227550000000     0.527810000000     0.0827293  
H149     H      0.383640000000     0.253500000000     0.491740000000     0.0674656  
H150     H      0.360900000000     0.239500000000     0.542240000000     0.0810103  
H151     H      0.402650000000     0.995830000000     0.501820000000     0.0247111  
H152     H      0.409440000000     0.155270000000     0.574740000000     0.0214368  
H153     H      0.465180000000     0.107260000000     0.548180000000     0.0474605  
H154     H      0.435280000000     0.129920000000     0.540340000000     0.0510179  
H155     H      0.375480000000     0.021820000000     0.531270000000     0.0482792  
H156     H      0.363990000000     0.040690000000     0.594180000000     0.058372   
H157     H      0.490980000000     0.081230000000     0.514970000000     0.0234239  
H158     H      0.307800000000     0.055680000000     0.616730000000     0.0850322  
H159     H      0.327160000000     0.037870000000     0.645850000000     0.0703338  
H160     H      0.330180000000     0.072990000000     0.668620000000     0.0846615  
H161     H      0.085130000000     0.492170000000     0.924980000000     0.0248329  
H162     H      0.074550000000     0.336660000000     0.827070000000     0.0229852  
H163     H      0.025790000000     0.376170000000     0.913730000000     0.0487798  
H164     H      0.046980000000     0.362860000000     0.853480000000     0.0522269  
H165     H      0.111320000000     0.465530000000     0.895360000000     0.0477294  
H166     H      0.132540000000     0.435250000000     0.914430000000     0.0577209  
H167     H      0.999620000000     0.404100000000     0.940130000000     0.024702   
H168     H      0.185540000000     0.424610000000     0.861870000000     0.0825497  
H169     H      0.176890000000     0.430910000000     0.918810000000     0.0681569  
H170     H      0.174430000000     0.394290000000     0.905400000000     0.0842652  
H171     H      0.252020000000     0.321600000000     0.775310000000     0.0242301  
H172     H      0.245370000000     0.162570000000     0.703690000000     0.0230748  
H173     H      0.189190000000     0.211520000000     0.723010000000     0.0481679  
H174     H      0.218580000000     0.187990000000     0.734980000000     0.0515042  
H175     H      0.279110000000     0.295250000000     0.747330000000     0.0480115  
H176     H      0.291650000000     0.277220000000     0.683960000000     0.0580323  
H177     H      0.163110000000     0.237990000000     0.754580000000     0.0242044  
H178     H      0.327060000000     0.245120000000     0.612680000000     0.0811079  
H179     H      0.329970000000     0.280230000000     0.635300000000     0.068613   
H180     H      0.348290000000     0.261840000000     0.665610000000     0.0828875  
H181     H      0.518230000000     0.471000000000     0.835090000000     0.0252673  
H182     H      0.486340000000     0.441630000000     0.606010000000     0.0239687  
H183     H      0.425460000000     0.466570000000     0.762030000000     0.047137   
H184     H      0.483160000000     0.434630000000     0.687390000000     0.0514645  
H185     H      0.513620000000     0.467210000000     0.752900000000     0.049461   
H186     H      0.452660000000     0.502680000000     0.700310000000     0.0584445  
H187     H      0.431010000000     0.470940000000     0.843940000000     0.0231837  
H188     H      0.433400000000     0.501530000000     0.582670000000     0.0796267  
H189     H      0.434450000000     0.517430000000     0.637390000000     0.0666923  
H190     H      0.469070000000     0.536410000000     0.602580000000     0.0832135  
H191     H      0.516610000000     0.471860000000     0.333440000000     0.0256063  
H192     H      0.544800000000     0.506430000000     0.106890000000     0.0234703  
H193     H      0.511270000000     0.560630000000     0.263120000000     0.0479548  
H194     H      0.551270000000     0.510330000000     0.188030000000     0.051729   
H195     H      0.519250000000     0.477030000000     0.251510000000     0.0496726  
H196     H      0.476590000000     0.531690000000     0.199530000000     0.0586769  
H197     H      0.508300000000     0.554610000000     0.345250000000     0.0246786  
H198     H      0.443570000000     0.511750000000     0.100410000000     0.0843572  
H199     H      0.458330000000     0.545840000000     0.136230000000     0.0683812  
H200     H      0.476070000000     0.549830000000     0.082070000000     0.084628   
H201     H      0.796300000000     0.183130000000     0.779480000000     0.0249196  
H202     H      0.834450000000     0.216310000000     0.005750000000     0.0233443  
H203     H      0.890040000000     0.186580000000     0.847390000000     0.0481674  
H204     H      0.835660000000     0.221550000000     0.924210000000     0.0517608  
H205     H      0.803040000000     0.187790000000     0.861330000000     0.049358   
H206     H      0.864730000000     0.152380000000     0.911760000000     0.0588054  
H207     H      0.882380000000     0.181400000000     0.765770000000     0.0253785  
H208     H      0.850390000000     0.120670000000     0.010680000000     0.0846712  
H209     H      0.884390000000     0.138860000000     0.974530000000     0.0689196  
H210     H      0.886550000000     0.155700000000     0.028930000000     0.0850434  
H211     H      0.812460000000     0.105340000000     0.268000000000     0.0253304  
H212     H      0.844060000000     0.134940000000     0.498350000000     0.0255449  
H213     H      0.794710000000     0.179490000000     0.359640000000     0.0484459  
H214     H      0.841970000000     0.132840000000     0.416630000000     0.0532888  
H215     H      0.807000000000     0.098420000000     0.349970000000     0.0492014  
H216     H      0.757320000000     0.138190000000     0.418570000000     0.0572756  
H217     H      0.800700000000     0.186150000000     0.277740000000     0.023245   
H218     H      0.757230000000     0.161180000000     0.523570000000     0.0781825  
H219     H      0.729930000000     0.132430000000     0.484650000000     0.0654403  
H220     H      0.739770000000     0.118950000000     0.534760000000     0.080715   
H221     H      0.145570000000     0.370720000000     0.438150000000     0.0255036  
H222     H      0.107080000000     0.286530000000     0.676960000000     0.0249864  
H223     H      0.133250000000     0.281870000000     0.532460000000     0.0499203  
H224     H      0.101170000000     0.283840000000     0.595680000000     0.0527388  
H225     H      0.142680000000     0.374030000000     0.520210000000     0.0483575  
H226     H      0.176930000000     0.379380000000     0.584280000000     0.0585235  
H227     H      0.135900000000     0.279130000000     0.450460000000     0.0260867  
H228     H      0.209390000000     0.392370000000     0.683370000000     0.0837903  
H229     H      0.194750000000     0.411940000000     0.647720000000     0.0682084  
H230     H      0.177100000000     0.398200000000     0.701950000000     0.0848925  
H231     H      0.177070000000     0.282380000000     0.178660000000     0.0257504  
H232     H      0.215910000000     0.366980000000     0.940140000000     0.0211154  
H233     H      0.186970000000     0.369930000000     0.083530000000     0.0487066  
H234     H      0.220900000000     0.369570000000     0.021600000000     0.0508987  
H235     H      0.181240000000     0.279440000000     0.096740000000     0.048542   
H236     H      0.147250000000     0.272940000000     0.031590000000     0.0590117  
H237     H      0.183050000000     0.372330000000     0.165360000000     0.0255759  
H238     H      0.149150000000     0.255180000000     0.913610000000     0.0857748  
H239     H      0.131620000000     0.240540000000     0.967670000000     0.0692803  
H240     H      0.115750000000     0.259100000000     0.932290000000     0.0848175  
H241     H      0.066040000000     0.324010000000     0.276500000000     0.0257016  
H242     H      0.913020000000     0.166220000000     0.200870000000     0.023182   
H243     H      0.016770000000     0.213210000000     0.226780000000     0.0483221  
H244     H      0.964220000000     0.190800000000     0.234910000000     0.0515854  
H245     H      0.012970000000     0.298750000000     0.247020000000     0.0489385  
H246     H      0.982530000000     0.280870000000     0.183890000000     0.0583511  
H247     H      0.068620000000     0.238520000000     0.259890000000     0.0255068  
H248     H      0.911400000000     0.266600000000     0.162190000000     0.085044   
H249     H      0.948580000000     0.284720000000     0.133270000000     0.0703452  
H250     H      0.916560000000     0.250030000000     0.109560000000     0.0846301  
H251     H      0.256920000000     0.415600000000     0.332720000000     0.0250627  
H252     H      0.408140000000     0.410600000000     0.410820000000     0.0244289  
H253     H      0.301820000000     0.352370000000     0.392770000000     0.0490053  
H254     H      0.356310000000     0.383140000000     0.377970000000     0.0523826  
H255     H      0.310000000000     0.442480000000     0.362440000000     0.0481478  
H256     H      0.336440000000     0.452760000000     0.432660000000     0.0575391  
H257     H      0.249240000000     0.326230000000     0.361010000000     0.026207   
H258     H      0.406530000000     0.510100000000     0.457380000000     0.0825597  
H259     H      0.369200000000     0.489130000000     0.485540000000     0.0667675  
H260     H      0.401560000000     0.486790000000     0.508380000000     0.0796143  
H261     H      0.522910000000     0.042780000000     0.828120000000     0.0254995  
H262     H      0.475710000000     0.947260000000     0.608240000000     0.0250308  
H263     H      0.517290000000     0.949840000000     0.753340000000     0.0481068  
H264     H      0.480750000000     0.947760000000     0.689530000000     0.0523087  
H265     H      0.527350000000     0.042410000000     0.746030000000     0.04932    
H266     H      0.562090000000     0.040120000000     0.683440000000     0.057734   
H267     H      0.513190000000     0.950960000000     0.835670000000     0.022677   
H268     H      0.554890000000     0.061150000000     0.577880000000     0.0837051  
H269     H      0.584640000000     0.064570000000     0.616360000000     0.0666901  
H270     H      0.576840000000     0.040610000000     0.567230000000     0.0845599  
H271     H      0.467630000000     0.940790000000     0.107440000000     0.0250486  
H272     H      0.512690000000     0.038410000000     0.326450000000     0.0249929  
H273     H      0.472740000000     0.034070000000     0.180340000000     0.0495364  
H274     H      0.508740000000     0.036920000000     0.244960000000     0.0530587  
H275     H      0.462890000000     0.941670000000     0.189600000000     0.0494196  
H276     H      0.427660000000     0.944380000000     0.251420000000     0.058813   
H277     H      0.477130000000     0.032460000000     0.098270000000     0.0259626  
H278     H      0.411700000000     0.945950000000     0.367550000000     0.0864737  
H279     H      0.403330000000     0.921660000000     0.318690000000     0.0690418  
H280     H      0.432610000000     0.924290000000     0.357530000000     0.0848789  
H281     H      0.589830000000     0.083170000000     0.997370000000     0.0251424  
H282     H      0.743190000000     0.080510000000     0.071110000000     0.0243378  
H283     H      0.637590000000     0.021860000000     0.054640000000     0.0490224  
H284     H      0.691270000000     0.053060000000     0.038990000000     0.0524248  
H285     H      0.642990000000     0.111090000000     0.026960000000     0.048166   
H286     H      0.671420000000     0.122350000000     0.095100000000     0.0579536  
H287     H      0.585150000000     0.994830000000     0.022880000000     0.026039   
H288     H      0.742210000000     0.179930000000     0.118550000000     0.0838529  
H289     H      0.704830000000     0.159400000000     0.146610000000     0.068641   
H290     H      0.736920000000     0.156650000000     0.169710000000     0.0850261  
H291     H      0.184190000000     0.797350000000     0.656060000000     0.0256929  
H292     H      0.215390000000     0.830930000000     0.427690000000     0.0244704  
H293     H      0.190800000000     0.891880000000     0.585260000000     0.0477689  
H294     H      0.221330000000     0.832730000000     0.509300000000     0.0517957  
H295     H      0.188710000000     0.802960000000     0.573990000000     0.0493181  
H296     H      0.157020000000     0.867920000000     0.521650000000     0.0586386  
H297     H      0.185480000000     0.885200000000     0.666930000000     0.0251994  
H298     H      0.124810000000     0.854860000000     0.424040000000     0.0842395  
H299     H      0.145920000000     0.889490000000     0.458510000000     0.0688968  
H300     H      0.160990000000     0.888970000000     0.403720000000     0.0852664  
H301     H      0.143130000000     0.853580000000     0.937690000000     0.0257931  
H302     H      0.168150000000     0.782970000000     0.159470000000     0.02249    
H303     H      0.131500000000     0.757680000000     0.011110000000     0.0485317  
H304     H      0.163090000000     0.779200000000     0.077600000000     0.0519511  
H305     H      0.138740000000     0.849170000000     0.019190000000     0.0478074  
H306     H      0.107590000000     0.824870000000     0.081800000000     0.0566393  
H307     H      0.137400000000     0.763560000000     0.929060000000     0.0254619  
H308     H      0.142050000000     0.864040000000     0.177930000000     0.0495078  
H309     H      0.106830000000     0.851800000000     0.144660000000     0.0628068  
H310     H      0.102070000000     0.833220000000     0.197890000000     0.0828295  
H311     H      0.252210000000     0.826030000000     0.848020000000     0.0253024  
H312     H      0.397270000000     0.981210000000     0.947270000000     0.0239678  
H313     H      0.310710000000     0.942100000000     0.858210000000     0.048934   
H314     H      0.343870000000     0.955180000000     0.919710000000     0.0524996  
H315     H      0.304660000000     0.851820000000     0.879230000000     0.0480817  
H316     H      0.356680000000     0.881270000000     0.863260000000     0.0577667  
H317     H      0.257160000000     0.915150000000     0.830260000000     0.0255083  
H318     H      0.419890000000     0.892310000000     0.918570000000     0.0843959  
H319     H      0.404740000000     0.884350000000     0.861760000000     0.0686624  
H320     H      0.439020000000     0.921230000000     0.873250000000     0.0851624  
H321     H      0.770590000000     0.622050000000     0.994740000000     0.0240216  
H322     H      0.801390000000     0.619500000000     0.767500000000     0.0249755  
H323     H      0.846170000000     0.715120000000     0.906510000000     0.0494254  
H324     H      0.797380000000     0.619940000000     0.848660000000     0.0529479  
H325     H      0.764880000000     0.621810000000     0.912690000000     0.0483743  
H326     H      0.810770000000     0.713420000000     0.843690000000     0.0579865  
H327     H      0.851270000000     0.714720000000     0.988480000000     0.0257249  
H328     H      0.796470000000     0.714450000000     0.727200000000     0.0848209  
H329     H      0.812510000000     0.738070000000     0.776660000000     0.0680113  
H330     H      0.838810000000     0.734370000000     0.738390000000     0.0836431  
H331     H      0.886480000000     0.704130000000     0.258600000000     0.0253943  
H332     H      0.857140000000     0.710330000000     0.486290000000     0.0219377  
H333     H      0.809770000000     0.613470000000     0.349730000000     0.0492996  
H334     H      0.859810000000     0.708780000000     0.404910000000     0.051812   
H335     H      0.892550000000     0.705540000000     0.340620000000     0.0486753  
H336     H      0.847160000000     0.615660000000     0.411690000000     0.058342   
H337     H      0.804150000000     0.612750000000     0.267620000000     0.0251716  
H338     H      0.821520000000     0.595870000000     0.517730000000     0.0845896  
H339     H      0.847890000000     0.592560000000     0.479120000000     0.068349   
H340     H      0.864000000000     0.616810000000     0.527960000000     0.0859628  
H341     H      0.581870000000     0.584740000000     0.526290000000     0.0253644  
H342     H      0.730750000000     0.579450000000     0.615540000000     0.0236079  
H343     H      0.644270000000     0.530960000000     0.526330000000     0.0483883  
H344     H      0.676830000000     0.551480000000     0.590960000000     0.0515672  
H345     H      0.635460000000     0.612880000000     0.553810000000     0.0487369  
H346     H      0.687850000000     0.636280000000     0.530460000000     0.05841    
H347     H      0.590060000000     0.503030000000     0.500960000000     0.0251933  
H348     H      0.769480000000     0.678990000000     0.532420000000     0.0850842  
H349     H      0.734880000000     0.681990000000     0.527720000000     0.0688823  
H350     H      0.754220000000     0.690000000000     0.581570000000     0.083728   
H351     H      0.067310000000     0.820220000000     0.767210000000     0.0253124  
H352     H      0.913070000000     0.664380000000     0.695970000000     0.0240775  
H353     H      0.019300000000     0.710160000000     0.714120000000     0.0494298  
H354     H      0.964930000000     0.688340000000     0.728810000000     0.0524086  
H355     H      0.014230000000     0.794590000000     0.737440000000     0.0483908  
H356     H      0.987470000000     0.776900000000     0.667650000000     0.0578694  
H357     H      0.071890000000     0.736110000000     0.745820000000     0.0262723  
H358     H      0.918270000000     0.765720000000     0.641160000000     0.0821787  
H359     H      0.955410000000     0.780050000000     0.613080000000     0.0680517  
H360     H      0.922280000000     0.745250000000     0.591940000000     0.0842596  
N1       N      0.775130000000     0.070760000000     0.674550000000    -0.212563   
N2       N      0.699220000000     0.914730000000     0.765120000000    -0.197926   
N3       N      0.864700000000     0.247900000000     0.595620000000    -0.212282   
N4       N      0.949680000000     0.406030000000     0.513620000000    -0.197945   
N5       N      0.041820000000     0.583640000000     0.436510000000    -0.212083   
N6       N      0.116990000000     0.737390000000     0.339120000000    -0.19767    
N7       N      0.536080000000     0.582410000000     0.937140000000    -0.212672   
N8       N      0.612040000000     0.737510000000     0.843080000000    -0.19786    
N9       N      0.206420000000     0.912620000000     0.255670000000    -0.214596   
N10      N      0.282150000000     0.070530000000     0.178620000000    -0.197373   
N11      N      0.444840000000     0.404440000000     0.012830000000    -0.212438   
N12      N      0.368540000000     0.248280000000     0.103220000000    -0.197416   
N13      N      0.663910000000     0.808470000000     0.434000000000    -0.212001   
N14      N      0.652930000000     0.805300000000     0.674230000000    -0.19761    
N15      N      0.658820000000     0.847580000000     0.933680000000    -0.211281   
N16      N      0.656760000000     0.842450000000     0.174050000000    -0.198008   
N17      N      0.781830000000     0.705390000000     0.165910000000    -0.212907   
N18      N      0.704880000000     0.781670000000     0.265180000000    -0.198424   
N19      N      0.615550000000     0.870290000000     0.339800000000    -0.212269   
N20      N      0.539480000000     0.949830000000     0.430050000000    -0.19823    
N21      N      0.993910000000     0.514650000000     0.845190000000    -0.212027   
N22      N      0.000900000000     0.516010000000     0.604710000000    -0.197449   
N23      N      0.991280000000     0.473250000000     0.344950000000    -0.211721   
N24      N      0.001510000000     0.478890000000     0.104320000000    -0.197631   
N25      N      0.956710000000     0.543200000000     0.015000000000    -0.212323   
N26      N      0.874430000000     0.620460000000     0.089920000000    -0.197677   
N27      N      0.332530000000     0.141500000000     0.770580000000    -0.212286   
N28      N      0.323040000000     0.139430000000     0.010920000000    -0.197338   
N29      N      0.323450000000     0.176980000000     0.511170000000    -0.211615   
N30      N      0.327210000000     0.178410000000     0.270760000000    -0.197766   
N31      N      0.370830000000     0.112980000000     0.602390000000    -0.213256   
N32      N      0.448790000000     0.036530000000     0.506400000000    -0.198082   
N33      N      0.119720000000     0.371230000000     0.853090000000    -0.212927   
N34      N      0.040450000000     0.450130000000     0.934820000000    -0.197939   
N35      N      0.284850000000     0.204870000000     0.677580000000    -0.212817   
N36      N      0.205580000000     0.281810000000     0.766840000000    -0.198268   
N37      N      0.471900000000     0.476590000000     0.605240000000    -0.212202   
N38      N      0.475420000000     0.472100000000     0.845500000000    -0.198186   
N39      N      0.506410000000     0.516030000000     0.105020000000    -0.212241   
N40      N      0.511610000000     0.512460000000     0.345390000000    -0.197897   
N41      N      0.848210000000     0.180830000000     0.006900000000    -0.212204   
N42      N      0.838450000000     0.181210000000     0.766620000000    -0.197657   
N43      N      0.802400000000     0.138730000000     0.507190000000    -0.2116     
N44      N      0.807490000000     0.146550000000     0.266880000000    -0.198023   
N45      N      0.146000000000     0.334250000000     0.678880000000    -0.211509   
N46      N      0.141530000000     0.324940000000     0.438230000000    -0.19728    
N47      N      0.178140000000     0.318720000000     0.937590000000    -0.212325   
N48      N      0.179200000000     0.327310000000     0.178050000000    -0.197409   
N49      N      0.916830000000     0.208950000000     0.174490000000    -0.212465   
N50      N      0.071340000000     0.283230000000     0.270180000000    -0.19729    
N51      N      0.403400000000     0.448440000000     0.439630000000    -0.211659   
N52      N      0.248970000000     0.368930000000     0.345110000000    -0.197222   
N53      N      0.515380000000     0.993790000000     0.597240000000    -0.210643   
N54      N      0.517140000000     0.996670000000     0.837920000000    -0.197706   
N55      N      0.473040000000     0.991920000000     0.337690000000    -0.210636   
N56      N      0.473320000000     0.986770000000     0.096810000000    -0.197059   
N57      N      0.738540000000     0.118190000000     0.100710000000    -0.211644   
N58      N      0.583440000000     0.036940000000     0.008110000000    -0.196966   
N59      N      0.182390000000     0.847790000000     0.426680000000    -0.211519   
N60      N      0.183730000000     0.840450000000     0.667530000000    -0.197015   
N61      N      0.141930000000     0.806940000000     0.168190000000    -0.211087   
N62      N      0.141140000000     0.809160000000     0.927290000000    -0.197158   
N63      N      0.407780000000     0.946020000000     0.923440000000    -0.211735   
N64      N      0.250720000000     0.868620000000     0.836930000000    -0.197233   
N65      N      0.809570000000     0.666630000000     0.756960000000    -0.211137   
N66      N      0.811730000000     0.668110000000     0.997610000000    -0.197858   
N67      N      0.849600000000     0.663530000000     0.497690000000    -0.211736   
N68      N      0.844520000000     0.658610000000     0.257090000000    -0.197564   
N69      N      0.741160000000     0.624510000000     0.588490000000    -0.211389   
N70      N      0.581890000000     0.541750000000     0.511710000000    -0.197319   
N71      N      0.919190000000     0.706590000000     0.663910000000    -0.211795   
N72      N      0.073710000000     0.780230000000     0.758350000000    -0.196973   
Ni1      Ni     0.827560000000     0.640300000000     0.632740000000     0.99628    
Ni2      Ni     0.832360000000     0.690480000000     0.622030000000     0.992775   
Ni3      Ni     0.162720000000     0.800430000000     0.795020000000     0.995023   
Ni4      Ni     0.161870000000     0.848500000000     0.799720000000     1.0032     
Ni5      Ni     0.495110000000     0.967280000000     0.970390000000     0.998226   
Ni6      Ni     0.495420000000     0.015870000000     0.964340000000     0.998181   
Ni7      Ni     0.158720000000     0.301170000000     0.311810000000     1.00136    
Ni8      Ni     0.161390000000     0.350830000000     0.304260000000     1.0009     
Ni9      Ni     0.828820000000     0.140100000000     0.133940000000     1.00175    
Ni10     Ni     0.826890000000     0.187450000000     0.140280000000     0.992888   
Ni11     Ni     0.494260000000     0.471690000000     0.471740000000     0.998999   
Ni12     Ni     0.491330000000     0.518470000000     0.479140000000     0.999039   
Ni13     Ni     0.186320000000     0.350700000000     0.806390000000     0.999537   
Ni14     Ni     0.138070000000     0.302200000000     0.810070000000     0.99683    
Ni15     Ni     0.352640000000     0.182450000000     0.643560000000     0.997719   
Ni16     Ni     0.303290000000     0.135310000000     0.638040000000     0.998126   
Ni17     Ni     0.023220000000     0.519750000000     0.977650000000     1.00242    
Ni18     Ni     0.973470000000     0.473020000000     0.971580000000     0.996813   
Ni19     Ni     0.684710000000     0.849480000000     0.307060000000     1.002      
Ni20     Ni     0.635870000000     0.801740000000     0.300690000000     0.999876   
Ni21     Ni     0.851600000000     0.687840000000     0.124750000000     1.00625    
Ni22     Ni     0.804560000000     0.638160000000     0.129800000000     0.997683   
Ni23     Ni     0.517140000000     0.017860000000     0.462400000000     0.997879   
Ni24     Ni     0.470760000000     0.968400000000     0.472870000000     0.998444   
Ni25     Ni     0.300530000000     0.158190000000     0.137200000000     1.0003     
Ni26     Ni     0.349990000000     0.160540000000     0.144300000000     1.00446    
Ni27     Ni     0.466790000000     0.494320000000     0.976990000000     0.997127   
Ni28     Ni     0.514330000000     0.492640000000     0.973440000000     0.999549   
Ni29     Ni     0.138570000000     0.826870000000     0.302010000000     1.00902    
Ni30     Ni     0.185230000000     0.823920000000     0.293060000000     0.989986   
Ni31     Ni     0.971900000000     0.494730000000     0.472060000000     1.00222    
Ni32     Ni     0.020150000000     0.494630000000     0.477980000000     0.995203   
Ni33     Ni     0.796620000000     0.160740000000     0.640540000000     0.994385   
Ni34     Ni     0.843930000000     0.158890000000     0.633910000000     1.00253    
Ni35     Ni     0.631020000000     0.825110000000     0.800320000000     0.999234   
Ni36     Ni     0.680230000000     0.827000000000     0.807220000000     1.00194    
O1       O      0.838700000000     0.641590000000     0.569970000000    -0.457336   
O2       O      0.816550000000     0.642180000000     0.694610000000    -0.452514   
O3       O      0.784170000000     0.622060000000     0.615320000000    -0.450909   
O4       O      0.871320000000     0.661920000000     0.649600000000    -0.449899   
O5       O      0.875660000000     0.708760000000     0.639000000000    -0.457972   
O6       O      0.788770000000     0.669020000000     0.605290000000    -0.457482   
O7       O      0.821270000000     0.689170000000     0.684950000000    -0.456075   
O8       O      0.843200000000     0.688470000000     0.560010000000    -0.455755   
O9       O      0.150400000000     0.793420000000     0.857890000000    -0.447939   
O10      O      0.174930000000     0.810620000000     0.732380000000    -0.447555   
O11      O      0.205970000000     0.823680000000     0.813670000000    -0.449411   
O12      O      0.119390000000     0.780310000000     0.776890000000    -0.448987   
O13      O      0.118260000000     0.825010000000     0.782740000000    -0.449739   
O14      O      0.205530000000     0.868850000000     0.816310000000    -0.449681   
O15      O      0.173300000000     0.855120000000     0.736760000000    -0.451526   
O16      O      0.150610000000     0.838860000000     0.862420000000    -0.451469   
O17      O      0.507860000000     0.972320000000     0.907810000000    -0.452301   
O18      O      0.482180000000     0.965370000000     0.032550000000    -0.449114   
O19      O      0.452220000000     0.946700000000     0.950710000000    -0.457076   
O20      O      0.538190000000     0.991040000000     0.989350000000    -0.450439   
O21      O      0.538880000000     0.036600000000     0.982300000000    -0.448584   
O22      O      0.451870000000     0.991800000000     0.946660000000    -0.44793    
O23      O      0.483480000000     0.011300000000     0.027100000000    -0.450932   
O24      O      0.507510000000     0.017430000000     0.902020000000    -0.451427   
O25      O      0.147500000000     0.301250000000     0.374310000000    -0.449962   
O26      O      0.170080000000     0.304340000000     0.248880000000    -0.450613   
O27      O      0.202330000000     0.323700000000     0.328780000000    -0.449663   
O28      O      0.115360000000     0.281910000000     0.294150000000    -0.450114   
O29      O      0.117430000000     0.328240000000     0.289160000000    -0.449167   
O30      O      0.205120000000     0.370130000000     0.319920000000    -0.450405   
O31      O      0.171560000000     0.350260000000     0.241440000000    -0.450721   
O32      O      0.151150000000     0.348200000000     0.367590000000    -0.450856   
O33      O      0.840490000000     0.150960000000     0.071570000000    -0.457421   
O34      O      0.817180000000     0.132380000000     0.196750000000    -0.451989   
O35      O      0.785280000000     0.119520000000     0.116590000000    -0.451116   
O36      O      0.872120000000     0.163750000000     0.151870000000    -0.453837   
O37      O      0.870800000000     0.208350000000     0.155690000000    -0.45439    
O38      O      0.783190000000     0.163480000000     0.124400000000    -0.455413   
O39      O      0.816240000000     0.177150000000     0.203130000000    -0.452223   
O40      O      0.837520000000     0.194550000000     0.076990000000    -0.453607   
O41      O      0.483270000000     0.463820000000     0.534910000000    -0.451928   
O42      O      0.505000000000     0.482590000000     0.409180000000    -0.451475   
O43      O      0.537870000000     0.496120000000     0.488270000000    -0.449451   
O44      O      0.450460000000     0.450360000000     0.455470000000    -0.450253   
O45      O      0.447810000000     0.494060000000     0.462750000000    -0.458191   
O46      O      0.535040000000     0.539840000000     0.495410000000    -0.450663   
O47      O      0.502190000000     0.526340000000     0.415990000000    -0.451417   
O48      O      0.480440000000     0.507440000000     0.541550000000    -0.459411   
O49      O      0.176190000000     0.353700000000     0.744140000000    -0.455866   
O50      O      0.193160000000     0.344500000000     0.868680000000    -0.455708   
O51      O      0.206000000000     0.327260000000     0.787570000000    -0.453164   
O52      O      0.163730000000     0.371000000000     0.826220000000    -0.460048   
O53      O      0.118450000000     0.325800000000     0.829250000000    -0.450595   
O54      O      0.160790000000     0.281820000000     0.790360000000    -0.451718   
O55      O      0.148190000000     0.299170000000     0.872260000000    -0.455957   
O56      O      0.131180000000     0.308440000000     0.747820000000    -0.451943   
O57      O      0.353790000000     0.171770000000     0.705980000000    -0.457418   
O58      O      0.348350000000     0.190040000000     0.581050000000    -0.46133    
O59      O      0.330080000000     0.203510000000     0.660540000000    -0.457537   
O60      O      0.371930000000     0.158420000000     0.625500000000    -0.454723   
O61      O      0.325800000000     0.114200000000     0.621130000000    -0.456083   
O62      O      0.283960000000     0.159320000000     0.655790000000    -0.452583   
O63      O      0.302310000000     0.146120000000     0.575380000000    -0.450074   
O64      O      0.307610000000     0.127840000000     0.700890000000    -0.45375    
O65      O      0.024240000000     0.508570000000     0.040000000000    -0.452083   
O66      O      0.018820000000     0.527840000000     0.914980000000    -0.45099    
O67      O      0.001310000000     0.541040000000     0.996100000000    -0.458824   
O68      O      0.041960000000     0.495510000000     0.958760000000    -0.453489   
O69      O      0.995590000000     0.451410000000     0.954460000000    -0.449085   
O70      O      0.954740000000     0.497740000000     0.989180000000    -0.452465   
O71      O      0.972670000000     0.483900000000     0.909250000000    -0.456875   
O72      O      0.977360000000     0.465240000000     0.034380000000    -0.451788   
O73      O      0.685650000000     0.838720000000     0.369500000000    -0.457148   
O74      O      0.680650000000     0.857010000000     0.244150000000    -0.451414   
O75      O      0.661270000000     0.869590000000     0.324170000000    -0.452577   
O76      O      0.704910000000     0.826330000000     0.289280000000    -0.454339   
O77      O      0.659330000000     0.781360000000     0.284920000000    -0.45084    
O78      O      0.615660000000     0.825220000000     0.316780000000    -0.457565   
O79      O      0.635230000000     0.812030000000     0.237950000000    -0.453198   
O80      O      0.639640000000     0.794640000000     0.363860000000    -0.452584   
O81      O      0.859030000000     0.683100000000     0.187410000000    -0.452102   
O82      O      0.841080000000     0.689480000000     0.062430000000    -0.451937   
O83      O      0.827430000000     0.706800000000     0.143310000000    -0.453414   
O84      O      0.872700000000     0.665500000000     0.106720000000    -0.451031   
O85      O      0.828970000000     0.618990000000     0.113420000000    -0.45113    
O86      O      0.783180000000     0.660570000000     0.145770000000    -0.45633    
O87      O      0.797780000000     0.642440000000     0.066600000000    -0.452555   
O88      O      0.814520000000     0.637160000000     0.192710000000    -0.449823   
O89      O      0.526950000000     0.015840000000     0.525000000000    -0.457091   
O90      O      0.504130000000     0.016530000000     0.400440000000    -0.450776   
O91      O      0.493480000000     0.037400000000     0.480740000000    -0.453447   
O92      O      0.537970000000     0.995190000000     0.444960000000    -0.452488   
O93      O      0.494850000000     0.948860000000     0.456520000000    -0.452248   
O94      O      0.449590000000     0.991160000000     0.488470000000    -0.450503   
O95      O      0.461550000000     0.969820000000     0.409860000000    -0.45685    
O96      O      0.483200000000     0.970180000000     0.535140000000    -0.451154   
O97      O      0.300770000000     0.147920000000     0.074350000000    -0.45077    
O98      O      0.303440000000     0.168410000000     0.200540000000    -0.451217   
O99      O      0.323370000000     0.202260000000     0.122080000000    -0.44887    
O100     O      0.281040000000     0.114390000000     0.152930000000    -0.450132   
O101     O      0.327340000000     0.117070000000     0.162040000000    -0.450813   
O102     O      0.369420000000     0.203810000000     0.126070000000    -0.451538   
O103     O      0.350490000000     0.172380000000     0.206560000000    -0.451183   
O104     O      0.346260000000     0.148610000000     0.081540000000    -0.450892   
O105     O      0.460210000000     0.482340000000     0.914340000000    -0.45473    
O106     O      0.476550000000     0.506260000000     0.039630000000    -0.456723   
O107     O      0.490640000000     0.537670000000     0.958960000000    -0.453543   
O108     O      0.445930000000     0.450750000000     0.994170000000    -0.456135   
O109     O      0.490380000000     0.449200000000     0.991190000000    -0.451344   
O110     O      0.535200000000     0.536290000000     0.956500000000    -0.455438   
O111     O      0.520760000000     0.504460000000     0.036170000000    -0.455511   
O112     O      0.504820000000     0.480990000000     0.910640000000    -0.450568   
O113     O      0.151680000000     0.840270000000     0.363230000000    -0.458923   
O114     O      0.128710000000     0.813740000000     0.240460000000    -0.460828   
O115     O      0.118170000000     0.783860000000     0.321990000000    -0.451797   
O116     O      0.161820000000     0.869430000000     0.280640000000    -0.456696   
O117     O      0.206420000000     0.867780000000     0.276880000000    -0.450559   
O118     O      0.161130000000     0.780410000000     0.310110000000    -0.449611   
O119     O      0.173170000000     0.812920000000     0.230380000000    -0.448197   
O120     O      0.193920000000     0.835120000000     0.356240000000    -0.447678   
O121     O      0.976790000000     0.507020000000     0.534770000000    -0.450988   
O122     O      0.970200000000     0.482390000000     0.409730000000    -0.456463   
O123     O      0.950980000000     0.451510000000     0.490580000000    -0.454521   
O124     O      0.995890000000     0.537980000000     0.454060000000    -0.454081   
O125     O      0.041080000000     0.538380000000     0.461310000000    -0.455286   
O126     O      0.995930000000     0.450810000000     0.494170000000    -0.448442   
O127     O      0.015820000000     0.483470000000     0.414870000000    -0.451354   
O128     O      0.021410000000     0.505870000000     0.540710000000    -0.451951   
O129     O      0.788830000000     0.149170000000     0.577830000000    -0.462568   
O130     O      0.807580000000     0.172330000000     0.703100000000    -0.449894   
O131     O      0.820170000000     0.204050000000     0.622510000000    -0.457157   
O132     O      0.775970000000     0.117110000000     0.657230000000    -0.456786   
O133     O      0.820360000000     0.115550000000     0.652240000000    -0.451498   
O134     O      0.864470000000     0.202430000000     0.616310000000    -0.450526   
O135     O      0.852050000000     0.170960000000     0.696480000000    -0.451848   
O136     O      0.832620000000     0.146870000000     0.571550000000    -0.451365   
O137     O      0.634710000000     0.836670000000     0.863060000000    -0.458653   
O138     O      0.630580000000     0.813620000000     0.737790000000    -0.450328   
O139     O      0.611300000000     0.781690000000     0.818120000000    -0.451732   
O140     O      0.653950000000     0.868790000000     0.783580000000    -0.451594   
O141     O      0.699940000000     0.870350000000     0.789050000000    -0.451213   
O142     O      0.657320000000     0.783400000000     0.824450000000    -0.450499   
O143     O      0.676480000000     0.815120000000     0.744560000000    -0.451908   
O144     O      0.680750000000     0.838900000000     0.869590000000    -0.451162   


