data_structure

_audit_creation_method RASPA-1.0
_audit_creation_date 2023-5-23
_audit_author_name 'Poobodin Mano'

_cell_length_a    45.3789
_cell_length_b    45.3792
_cell_length_c    38.3416
_cell_angle_alpha 90.0012
_cell_angle_beta  89.9971
_cell_angle_gamma 89.9989
_cell_volume      78955.3

_symmetry_cell_setting          triclinic
_symmetry_space_group_name_Hall 'P 1'
_symmetry_space_group_name_H-M  'P 1'
_symmetry_Int_Tables_number     1

_symmetry_equiv_pos_as_xyz 'x,y,z'

loop_
_atom_site_label
_atom_site_type_symbol
_atom_site_fract_x
_atom_site_fract_y
_atom_site_fract_z
_atom_site_charge
C1       C      0.498740000000     0.283030000000     0.969410000000     0.434707   
C2       C      0.418930000000     0.283030000000     0.063640000000     0.434453   
C3       C      0.498800000000     0.283030000000     0.063570000000     0.43475    
C4       C      0.418870000000     0.283040000000     0.969480000000     0.434519   
C5       C      0.187320000000     0.514760000000     0.969560000000     0.434538   
C6       C      0.187430000000     0.594610000000     0.063740000000     0.434795   
C7       C      0.187350000000     0.514740000000     0.063710000000     0.43474    
C8       C      0.187400000000     0.594630000000     0.969580000000     0.434466   
C9       C      0.499110000000     0.826340000000     0.969460000000     0.434453   
C10      C      0.419300000000     0.826340000000     0.063690000000     0.434556   
C11      C      0.499170000000     0.826330000000     0.063620000000     0.434399   
C12      C      0.419240000000     0.826350000000     0.969540000000     0.434737   
C13      C      0.730610000000     0.514760000000     0.969370000000     0.434726   
C14      C      0.730720000000     0.594610000000     0.063550000000     0.434767   
C15      C      0.730640000000     0.514740000000     0.063530000000     0.434744   
C16      C      0.730680000000     0.594630000000     0.969390000000     0.43441    
C17      C      0.230720000000     0.014750000000     0.469580000000     0.434712   
C18      C      0.230610000000     0.094630000000     0.563720000000     0.434839   
C19      C      0.230690000000     0.014750000000     0.563730000000     0.434689   
C20      C      0.230640000000     0.094620000000     0.469570000000     0.434704   
C21      C      0.999160000000     0.783040000000     0.469520000000     0.434665   
C22      C      0.919250000000     0.783030000000     0.563640000000     0.434491   
C23      C      0.999120000000     0.783040000000     0.563680000000     0.434499   
C24      C      0.919280000000     0.783030000000     0.469480000000     0.434832   
C25      C      0.687430000000     0.014750000000     0.469380000000     0.434686   
C26      C      0.687320000000     0.094630000000     0.563530000000     0.434678   
C27      C      0.687400000000     0.014750000000     0.563540000000     0.434619   
C28      C      0.687350000000     0.094620000000     0.469370000000     0.434816   
C29      C      0.998790000000     0.326340000000     0.469460000000     0.434475   
C30      C      0.918880000000     0.326340000000     0.563590000000     0.434514   
C31      C      0.998750000000     0.326350000000     0.563620000000     0.434657   
C32      C      0.918910000000     0.326330000000     0.469430000000     0.43468    
C33      C      0.163210000000     0.314920000000     0.303750000000     0.434652   
C34      C      0.254620000000     0.294430000000     0.229510000000     0.434732   
C35      C      0.219150000000     0.258980000000     0.303770000000     0.434848   
C36      C      0.198690000000     0.350370000000     0.229500000000     0.43484    
C37      C      0.719150000000     0.350360000000     0.229300000000     0.434707   
C38      C      0.698670000000     0.258970000000     0.303550000000     0.434515   
C39      C      0.663220000000     0.294430000000     0.229290000000     0.434675   
C40      C      0.754600000000     0.314910000000     0.303560000000     0.434615   
C41      C      0.719030000000     0.350380000000     0.803610000000     0.43461    
C42      C      0.698570000000     0.258980000000     0.729350000000     0.434828   
C43      C      0.663090000000     0.294440000000     0.803600000000     0.43439    
C44      C      0.754500000000     0.314920000000     0.729350000000     0.434793   
C45      C      0.699000000000     0.850350000000     0.303640000000     0.434604   
C46      C      0.719490000000     0.758950000000     0.229400000000     0.434772   
C47      C      0.754940000000     0.794410000000     0.303660000000     0.434832   
C48      C      0.663560000000     0.814880000000     0.229380000000     0.43435    
C49      C      0.754830000000     0.794450000000     0.729350000000     0.434358   
C50      C      0.663420000000     0.814940000000     0.803590000000     0.434691   
C51      C      0.698890000000     0.850390000000     0.729330000000     0.434591   
C52      C      0.719350000000     0.759010000000     0.803610000000     0.434478   
C53      C      0.163540000000     0.794450000000     0.303750000000     0.434916   
C54      C      0.254940000000     0.814930000000     0.229500000000     0.434688   
C55      C      0.219470000000     0.850390000000     0.303760000000     0.434581   
C56      C      0.199010000000     0.759000000000     0.229490000000     0.434684   
C57      C      0.219370000000     0.850400000000     0.729550000000     0.434523   
C58      C      0.198880000000     0.759010000000     0.803810000000     0.434512   
C59      C      0.163430000000     0.794470000000     0.729540000000     0.434492   
C60      C      0.254820000000     0.814940000000     0.803810000000     0.434814   
C61      C      0.219040000000     0.259030000000     0.729460000000     0.434664   
C62      C      0.198550000000     0.350430000000     0.803700000000     0.434605   
C63      C      0.163100000000     0.314960000000     0.729440000000     0.434403   
C64      C      0.254480000000     0.294490000000     0.803720000000     0.434731   
C65      C      0.052260000000     0.299140000000     0.627490000000    -0.0874058  
C66      C      0.065900000000     0.325290000000     0.638100000000     0.0349803  
C67      C      0.056230000000     0.351940000000     0.623730000000    -0.0872188  
C68      C      0.033390000000     0.351990000000     0.599250000000     0.0721896  
C69      C      0.029820000000     0.299940000000     0.602640000000     0.072578   
C70      C      0.090600000000     0.324450000000     0.663390000000     0.0348751  
C71      C      0.088690000000     0.307210000000     0.693560000000    -0.0873895  
C72      C      0.112850000000     0.305020000000     0.715940000000     0.0722147  
C73      C      0.140660000000     0.336820000000     0.679530000000     0.0723316  
C74      C      0.116760000000     0.339800000000     0.656820000000    -0.0870262  
C75      C      0.116840000000     0.339780000000     0.376350000000    -0.0869943  
C76      C      0.090680000000     0.324430000000     0.369760000000     0.0349026  
C77      C      0.088790000000     0.307190000000     0.339590000000    -0.0874707  
C78      C      0.112960000000     0.305000000000     0.317230000000     0.0723406  
C79      C      0.140760000000     0.336790000000     0.353650000000     0.0722725  
C80      C      0.065980000000     0.325270000000     0.395030000000     0.0348787  
C81      C      0.056300000000     0.351930000000     0.409400000000    -0.0871278  
C82      C      0.033440000000     0.351980000000     0.433860000000     0.0721724  
C83      C      0.029880000000     0.299930000000     0.430480000000     0.0726108  
C84      C      0.052330000000     0.299120000000     0.405650000000    -0.0873709  
C85      C      0.829010000000     0.307160000000     0.339460000000    -0.0873938  
C86      C      0.827100000000     0.324410000000     0.369620000000     0.0348306  
C87      C      0.800930000000     0.339760000000     0.376180000000    -0.0869202  
C88      C      0.777030000000     0.336780000000     0.353470000000     0.0722143  
C89      C      0.804850000000     0.304970000000     0.317080000000     0.0722521  
C90      C      0.851790000000     0.325250000000     0.394920000000     0.0349459  
C91      C      0.865430000000     0.299100000000     0.405540000000    -0.0874113  
C92      C      0.887860000000     0.299910000000     0.430400000000     0.0725832  
C93      C      0.884280000000     0.351970000000     0.433780000000     0.0720114  
C94      C      0.861440000000     0.351910000000     0.409290000000    -0.0871193  
C95      C      0.861380000000     0.351920000000     0.623670000000    -0.0870964  
C96      C      0.851710000000     0.325260000000     0.638040000000     0.0348938  
C97      C      0.865360000000     0.299120000000     0.627430000000    -0.0873445  
C98      C      0.887800000000     0.299920000000     0.602590000000     0.0725612  
C99      C      0.884230000000     0.351980000000     0.599200000000     0.0720495  
C100     C      0.827010000000     0.324420000000     0.663330000000     0.0349103  
C101     C      0.828910000000     0.307180000000     0.693500000000    -0.0874965  
C102     C      0.804740000000     0.304990000000     0.715860000000     0.0723515  
C103     C      0.776940000000     0.336790000000     0.679450000000     0.0723234  
C104     C      0.800850000000     0.339770000000     0.656750000000    -0.0870055  
C105     C      0.714470000000     0.148160000000     0.627390000000    -0.0872917  
C106     C      0.688310000000     0.161780000000     0.638000000000     0.0349     
C107     C      0.661670000000     0.152100000000     0.623620000000    -0.0870992  
C108     C      0.661640000000     0.129250000000     0.599140000000     0.0720668  
C109     C      0.713700000000     0.125720000000     0.602550000000     0.0725344  
C110     C      0.689120000000     0.186480000000     0.663300000000     0.0349165  
C111     C      0.706350000000     0.184570000000     0.693470000000    -0.0874591  
C112     C      0.708520000000     0.208740000000     0.715850000000     0.0722564  
C113     C      0.676720000000     0.236540000000     0.679430000000     0.0722759  
C114     C      0.673760000000     0.212630000000     0.656720000000    -0.0869689  
C115     C      0.673840000000     0.212620000000     0.376170000000    -0.0869972  
C116     C      0.689200000000     0.186460000000     0.369600000000     0.0348924  
C117     C      0.706440000000     0.184560000000     0.339430000000    -0.0875102  
C118     C      0.708620000000     0.208730000000     0.317060000000     0.0723592  
C119     C      0.676810000000     0.236520000000     0.353460000000     0.0722923  
C120     C      0.688370000000     0.161770000000     0.394890000000     0.0349212  
C121     C      0.714530000000     0.148150000000     0.405520000000    -0.0873705  
C122     C      0.713740000000     0.125710000000     0.430360000000     0.0726151  
C123     C      0.661680000000     0.129240000000     0.433740000000     0.0720607  
C124     C      0.661720000000     0.152090000000     0.409260000000    -0.0871885  
C125     C      0.661910000000     0.957230000000     0.409280000000    -0.0871706  
C126     C      0.688580000000     0.947580000000     0.394920000000     0.034926   
C127     C      0.714710000000     0.961240000000     0.405550000000    -0.08732    
C128     C      0.713880000000     0.983690000000     0.430390000000     0.0725785  
C129     C      0.661830000000     0.980080000000     0.433740000000     0.0721438  
C130     C      0.689450000000     0.922870000000     0.369650000000     0.0348817  
C131     C      0.674110000000     0.896710000000     0.376230000000    -0.0869348  
C132     C      0.677110000000     0.872790000000     0.353540000000     0.0722055  
C133     C      0.708920000000     0.900600000000     0.317130000000     0.0722988  
C134     C      0.706710000000     0.924770000000     0.339490000000    -0.087439   
C135     C      0.706620000000     0.924810000000     0.693460000000    -0.0873985  
C136     C      0.689370000000     0.922900000000     0.663290000000     0.0348621  
C137     C      0.674030000000     0.896730000000     0.656720000000    -0.087004   
C138     C      0.677020000000     0.872830000000     0.679420000000     0.0722928  
C139     C      0.708820000000     0.900640000000     0.715830000000     0.0722602  
C140     C      0.688520000000     0.947600000000     0.638010000000     0.0349215  
C141     C      0.661860000000     0.957250000000     0.623640000000    -0.0870891  
C142     C      0.661780000000     0.980090000000     0.599160000000     0.0720722  
C143     C      0.713840000000     0.983710000000     0.602550000000     0.0725399  
C144     C      0.714650000000     0.961260000000     0.627390000000    -0.0872953  
C145     C      0.056660000000     0.757460000000     0.409430000000    -0.0871507  
C146     C      0.066320000000     0.784110000000     0.395060000000     0.0349587  
C147     C      0.052680000000     0.810260000000     0.405680000000    -0.0873943  
C148     C      0.030230000000     0.809450000000     0.430520000000     0.0726111  
C149     C      0.033810000000     0.757400000000     0.433900000000     0.0721514  
C150     C      0.091030000000     0.784950000000     0.369780000000     0.0348747  
C151     C      0.117190000000     0.769600000000     0.376350000000    -0.0870245  
C152     C      0.141100000000     0.772590000000     0.353660000000     0.0723085  
C153     C      0.113290000000     0.804390000000     0.317240000000     0.0722334  
C154     C      0.089120000000     0.802190000000     0.339610000000    -0.0873669  
C155     C      0.056590000000     0.757470000000     0.623810000000    -0.087119   
C156     C      0.066250000000     0.784130000000     0.638190000000     0.0348919  
C157     C      0.052610000000     0.810270000000     0.627560000000    -0.0872724  
C158     C      0.030180000000     0.809470000000     0.602700000000     0.0724734  
C159     C      0.033750000000     0.757410000000     0.599330000000     0.0721127  
C160     C      0.090940000000     0.784970000000     0.663480000000     0.0348891  
C161     C      0.117100000000     0.769620000000     0.656920000000    -0.0869741  
C162     C      0.141000000000     0.772600000000     0.679630000000     0.0722815  
C163     C      0.113190000000     0.804410000000     0.716020000000     0.0723107  
C164     C      0.089030000000     0.802220000000     0.693650000000    -0.0874415  
C165     C      0.801190000000     0.769600000000     0.656760000000    -0.0869566  
C166     C      0.827360000000     0.784940000000     0.663340000000     0.0348169  
C167     C      0.829250000000     0.802180000000     0.693520000000    -0.0873725  
C168     C      0.805080000000     0.804380000000     0.715870000000     0.0722706  
C169     C      0.777280000000     0.772580000000     0.679450000000     0.0722815  
C170     C      0.852060000000     0.784100000000     0.638070000000     0.0349494  
C171     C      0.861730000000     0.757450000000     0.623710000000    -0.0871636  
C172     C      0.884590000000     0.757390000000     0.599250000000     0.0720233  
C173     C      0.888160000000     0.809450000000     0.602630000000     0.0725375  
C174     C      0.865700000000     0.810250000000     0.627460000000    -0.0873126  
C175     C      0.865780000000     0.810240000000     0.405610000000    -0.0873557  
C176     C      0.852140000000     0.784090000000     0.395000000000     0.0349122  
C177     C      0.861800000000     0.757440000000     0.409380000000    -0.087082   
C178     C      0.884650000000     0.757380000000     0.433850000000     0.0720428  
C179     C      0.888220000000     0.809440000000     0.430460000000     0.0725366  
C180     C      0.827440000000     0.784920000000     0.369710000000     0.0348834  
C181     C      0.829350000000     0.802160000000     0.339540000000    -0.087378   
C182     C      0.805180000000     0.804350000000     0.317160000000     0.0722637  
C183     C      0.777380000000     0.772550000000     0.353580000000     0.0722877  
C184     C      0.801280000000     0.769570000000     0.376280000000    -0.0870299  
C185     C      0.203380000000     0.148110000000     0.405710000000    -0.0873642  
C186     C      0.229520000000     0.161770000000     0.395090000000     0.0349368  
C187     C      0.256180000000     0.152130000000     0.409470000000    -0.0872249  
C188     C      0.256250000000     0.129280000000     0.433940000000     0.0721566  
C189     C      0.204200000000     0.125670000000     0.430550000000     0.0725446  
C190     C      0.228660000000     0.186470000000     0.369810000000     0.0349003  
C191     C      0.211420000000     0.184570000000     0.339650000000    -0.0874517  
C192     C      0.209220000000     0.208730000000     0.317280000000     0.0722594  
C193     C      0.241020000000     0.236540000000     0.353680000000     0.0723357  
C194     C      0.244010000000     0.212640000000     0.376390000000    -0.0870732  
C195     C      0.203320000000     0.148130000000     0.627550000000    -0.0873817  
C196     C      0.229450000000     0.161790000000     0.638180000000     0.0349517  
C197     C      0.256120000000     0.152150000000     0.623820000000    -0.0871557  
C198     C      0.256210000000     0.129290000000     0.599360000000     0.0721065  
C199     C      0.204150000000     0.125680000000     0.602720000000     0.0725261  
C200     C      0.228590000000     0.186500000000     0.663450000000     0.0348508  
C201     C      0.211330000000     0.184600000000     0.693610000000    -0.087395   
C202     C      0.209120000000     0.208780000000     0.715970000000     0.0722584  
C203     C      0.240930000000     0.236580000000     0.679570000000     0.0723048  
C204     C      0.243930000000     0.212670000000     0.656870000000    -0.0870154  
C205     C      0.244200000000     0.896750000000     0.656930000000    -0.0870141  
C206     C      0.228840000000     0.922910000000     0.663500000000     0.0348605  
C207     C      0.211600000000     0.924810000000     0.693670000000    -0.0873725  
C208     C      0.209420000000     0.900650000000     0.716050000000     0.0722414  
C209     C      0.241230000000     0.872850000000     0.679640000000     0.0722988  
C210     C      0.229660000000     0.947600000000     0.638210000000     0.0349537  
C211     C      0.256310000000     0.957290000000     0.623840000000    -0.0871108  
C212     C      0.256360000000     0.980130000000     0.599360000000     0.0720719  
C213     C      0.204300000000     0.983660000000     0.602740000000     0.0726411  
C214     C      0.203510000000     0.961220000000     0.627590000000    -0.0874095  
C215     C      0.211690000000     0.924800000000     0.339630000000    -0.0874307  
C216     C      0.228920000000     0.922900000000     0.369810000000     0.0348861  
C217     C      0.244280000000     0.896740000000     0.376390000000    -0.0870559  
C218     C      0.241320000000     0.872840000000     0.353680000000     0.072307   
C219     C      0.209520000000     0.900630000000     0.317250000000     0.0722821  
C220     C      0.229730000000     0.947590000000     0.395100000000     0.034939   
C221     C      0.256370000000     0.957270000000     0.409490000000    -0.087181   
C222     C      0.256400000000     0.980120000000     0.433960000000     0.0721116  
C223     C      0.204340000000     0.983650000000     0.430560000000     0.0725663  
C224     C      0.203570000000     0.961210000000     0.405710000000    -0.0873258  
C225     C      0.711430000000     0.424780000000     0.193430000000    -0.087405   
C226     C      0.728680000000     0.422880000000     0.163270000000     0.0348421  
C227     C      0.744020000000     0.396710000000     0.156690000000    -0.0869442  
C228     C      0.741030000000     0.372800000000     0.179390000000     0.0722476  
C229     C      0.709230000000     0.400610000000     0.215800000000     0.072253   
C230     C      0.729530000000     0.447580000000     0.137980000000     0.0349605  
C231     C      0.703390000000     0.461240000000     0.127370000000    -0.0874039  
C232     C      0.704210000000     0.483680000000     0.102530000000     0.0726163  
C233     C      0.756260000000     0.480070000000     0.099140000000     0.072048   
C234     C      0.756190000000     0.457220000000     0.123610000000    -0.0871729  
C235     C      0.744300000000     0.712600000000     0.156770000000    -0.0869904  
C236     C      0.728930000000     0.686440000000     0.163340000000     0.0348587  
C237     C      0.711710000000     0.684540000000     0.193520000000    -0.0874436  
C238     C      0.709540000000     0.708710000000     0.215900000000     0.0723561  
C239     C      0.741340000000     0.736500000000     0.179480000000     0.0722443  
C240     C      0.729740000000     0.661750000000     0.138040000000     0.0349475  
C241     C      0.756380000000     0.652070000000     0.123650000000    -0.0871283  
C242     C      0.756410000000     0.629220000000     0.099170000000     0.07209    
C243     C      0.704350000000     0.625700000000     0.102580000000     0.0725334  
C244     C      0.703580000000     0.648140000000     0.127440000000    -0.0873795  
C245     C      0.756300000000     0.652120000000     0.909300000000    -0.0870781  
C246     C      0.729650000000     0.661800000000     0.894940000000     0.0349254  
C247     C      0.703490000000     0.648180000000     0.905560000000    -0.0873618  
C248     C      0.704290000000     0.625730000000     0.930400000000     0.0726208  
C249     C      0.756350000000     0.629270000000     0.933770000000     0.0720149  
C250     C      0.728820000000     0.686500000000     0.869650000000     0.0348815  
C251     C      0.744180000000     0.712660000000     0.876220000000    -0.0870004  
C252     C      0.741210000000     0.736560000000     0.853520000000     0.0722503  
C253     C      0.709400000000     0.708760000000     0.817100000000     0.0722248  
C254     C      0.711580000000     0.684590000000     0.839480000000    -0.0874066  
C255     C      0.756110000000     0.457250000000     0.909250000000    -0.0871673  
C256     C      0.729450000000     0.447600000000     0.894900000000     0.034953   
C257     C      0.703310000000     0.461270000000     0.905530000000    -0.0874301  
C258     C      0.704150000000     0.483710000000     0.930370000000     0.0726539  
C259     C      0.756200000000     0.480100000000     0.933720000000     0.0721253  
C260     C      0.728570000000     0.422900000000     0.869620000000     0.034904   
C261     C      0.743910000000     0.396730000000     0.876200000000    -0.0869606  
C262     C      0.740910000000     0.372820000000     0.853510000000     0.0722345  
C263     C      0.709110000000     0.400630000000     0.817110000000     0.0723858  
C264     C      0.711320000000     0.424800000000     0.839470000000    -0.0875049  
C265     C      0.552700000000     0.799090000000     0.127440000000    -0.0873479  
C266     C      0.566350000000     0.825240000000     0.138060000000     0.0349077  
C267     C      0.556690000000     0.851890000000     0.123690000000    -0.0871374  
C268     C      0.533830000000     0.851960000000     0.099230000000     0.0720806  
C269     C      0.530250000000     0.799900000000     0.102600000000     0.072505   
C270     C      0.591050000000     0.824390000000     0.163340000000     0.0348859  
C271     C      0.589140000000     0.807140000000     0.193510000000    -0.0875011  
C272     C      0.613310000000     0.804950000000     0.215880000000     0.0723173  
C273     C      0.641120000000     0.836750000000     0.179470000000     0.0721994  
C274     C      0.617210000000     0.839740000000     0.156770000000    -0.0869787  
C275     C      0.365800000000     0.799120000000     0.127570000000    -0.0873684  
C276     C      0.352160000000     0.825270000000     0.138190000000     0.0349191  
C277     C      0.361820000000     0.851930000000     0.123820000000    -0.0871489  
C278     C      0.384670000000     0.851980000000     0.099340000000     0.0720313  
C279     C      0.388240000000     0.799920000000     0.102720000000     0.072544   
C280     C      0.327460000000     0.824430000000     0.163470000000     0.0348612  
C281     C      0.301300000000     0.839780000000     0.156900000000    -0.0869761  
C282     C      0.277390000000     0.836800000000     0.179600000000     0.0722841  
C283     C      0.305190000000     0.805000000000     0.216010000000     0.07228    
C284     C      0.329360000000     0.807190000000     0.193640000000    -0.0873927  
C285     C      0.361710000000     0.851940000000     0.909490000000    -0.0871045  
C286     C      0.352040000000     0.825280000000     0.895120000000     0.0349182  
C287     C      0.365690000000     0.799130000000     0.905720000000    -0.0874177  
C288     C      0.388140000000     0.799940000000     0.930550000000     0.0726807  
C289     C      0.384570000000     0.851990000000     0.933950000000     0.0720555  
C290     C      0.327330000000     0.824440000000     0.869840000000     0.0349177  
C291     C      0.301170000000     0.839790000000     0.876420000000    -0.0870086  
C292     C      0.277260000000     0.836810000000     0.853730000000     0.07225    
C293     C      0.305070000000     0.805020000000     0.817300000000     0.0723057  
C294     C      0.329240000000     0.807210000000     0.839670000000    -0.0874226  
C295     C      0.552590000000     0.799130000000     0.905560000000    -0.0873919  
C296     C      0.566220000000     0.825270000000     0.894930000000     0.0349663  
C297     C      0.556560000000     0.851930000000     0.909310000000    -0.0871509  
C298     C      0.533730000000     0.851990000000     0.933800000000     0.0720935  
C299     C      0.530160000000     0.799930000000     0.930420000000     0.0725859  
C300     C      0.590910000000     0.824440000000     0.869640000000     0.0348612  
C301     C      0.617070000000     0.839790000000     0.876210000000    -0.0869453  
C302     C      0.640980000000     0.836810000000     0.853500000000     0.0722021  
C303     C      0.613170000000     0.805010000000     0.817090000000     0.0723102  
C304     C      0.589010000000     0.807200000000     0.839470000000    -0.0874043  
C305     C      0.214720000000     0.648110000000     0.127570000000    -0.0873066  
C306     C      0.188590000000     0.661770000000     0.138210000000     0.0348601  
C307     C      0.161920000000     0.652130000000     0.123850000000    -0.0870639  
C308     C      0.161830000000     0.629280000000     0.099380000000     0.0719622  
C309     C      0.213890000000     0.625660000000     0.102730000000     0.0725547  
C310     C      0.189460000000     0.686480000000     0.163480000000     0.034954   
C311     C      0.206720000000     0.684570000000     0.193630000000    -0.0874288  
C312     C      0.208930000000     0.708750000000     0.216000000000     0.0722502  
C313     C      0.177120000000     0.736550000000     0.179600000000     0.0723235  
C314     C      0.174120000000     0.712640000000     0.156900000000    -0.0871123  
C315     C      0.214540000000     0.461200000000     0.127540000000    -0.08739    
C316     C      0.188390000000     0.447570000000     0.138170000000     0.0348942  
C317     C      0.161740000000     0.457260000000     0.123800000000    -0.0870896  
C318     C      0.161690000000     0.480110000000     0.099340000000     0.0720251  
C319     C      0.213750000000     0.483640000000     0.102700000000     0.0726395  
C320     C      0.189220000000     0.422880000000     0.163450000000     0.0348672  
C321     C      0.173860000000     0.396720000000     0.156880000000    -0.0869738  
C322     C      0.176830000000     0.372810000000     0.179580000000     0.0722346  
C323     C      0.208630000000     0.400610000000     0.216000000000     0.072312   
C324     C      0.206450000000     0.424780000000     0.193630000000    -0.0874645  
C325     C      0.173740000000     0.396780000000     0.876340000000    -0.0870361  
C326     C      0.189100000000     0.422930000000     0.869760000000     0.034923   
C327     C      0.206330000000     0.424840000000     0.839580000000    -0.0874462  
C328     C      0.208500000000     0.400670000000     0.817200000000     0.0723075  
C329     C      0.176700000000     0.372880000000     0.853620000000     0.0723079  
C330     C      0.188290000000     0.447620000000     0.895060000000     0.0349091  
C331     C      0.161650000000     0.457310000000     0.909450000000    -0.0871742  
C332     C      0.161630000000     0.480150000000     0.933930000000     0.0721451  
C333     C      0.213690000000     0.483670000000     0.930520000000     0.0725375  
C334     C      0.214460000000     0.461240000000     0.905670000000    -0.0873284  
C335     C      0.174020000000     0.712670000000     0.876410000000    -0.0869889  
C336     C      0.189360000000     0.686500000000     0.869840000000     0.0348852  
C337     C      0.206610000000     0.684590000000     0.839670000000    -0.087455   
C338     C      0.208810000000     0.708760000000     0.817310000000     0.0723312  
C339     C      0.177010000000     0.736570000000     0.853710000000     0.0723076  
C340     C      0.188510000000     0.661800000000     0.895120000000     0.0349071  
C341     C      0.214650000000     0.648130000000     0.905730000000    -0.087349   
C342     C      0.213830000000     0.625690000000     0.930570000000     0.0725492  
C343     C      0.161780000000     0.629300000000     0.933960000000     0.0721598  
C344     C      0.161850000000     0.652150000000     0.909500000000    -0.0871194  
C345     C      0.365450000000     0.310250000000     0.127550000000    -0.0874066  
C346     C      0.351820000000     0.284100000000     0.138170000000     0.0349506  
C347     C      0.361470000000     0.257440000000     0.123790000000    -0.0871766  
C348     C      0.384310000000     0.257390000000     0.099300000000     0.0720524  
C349     C      0.387880000000     0.309450000000     0.102680000000     0.0725566  
C350     C      0.327120000000     0.284940000000     0.163470000000     0.0348786  
C351     C      0.329030000000     0.302180000000     0.193630000000    -0.087426   
C352     C      0.304860000000     0.304370000000     0.216010000000     0.072311   
C353     C      0.277060000000     0.272560000000     0.179610000000     0.0722928  
C354     C      0.300960000000     0.269580000000     0.156900000000    -0.0869985  
C355     C      0.616860000000     0.269580000000     0.156680000000    -0.086982   
C356     C      0.590700000000     0.284930000000     0.163260000000     0.0348565  
C357     C      0.588800000000     0.302170000000     0.193440000000    -0.0874368  
C358     C      0.612970000000     0.304360000000     0.215800000000     0.0723038  
C359     C      0.640770000000     0.272560000000     0.179380000000     0.0722181  
C360     C      0.566000000000     0.284090000000     0.137980000000     0.0349266  
C361     C      0.552350000000     0.310240000000     0.127380000000    -0.0873851  
C362     C      0.529900000000     0.309440000000     0.102550000000     0.0725563  
C363     C      0.533470000000     0.257380000000     0.099160000000     0.0720367  
C364     C      0.556330000000     0.257440000000     0.123610000000    -0.0871191  
C365     C      0.588670000000     0.302180000000     0.839460000000    -0.0874742  
C366     C      0.590580000000     0.284940000000     0.869630000000     0.0349117  
C367     C      0.616740000000     0.269590000000     0.876210000000    -0.0869977  
C368     C      0.640650000000     0.272570000000     0.853510000000     0.0722293  
C369     C      0.612850000000     0.304370000000     0.817090000000     0.0723417  
C370     C      0.565880000000     0.284100000000     0.894910000000     0.0349108  
C371     C      0.552240000000     0.310250000000     0.905540000000    -0.0873692  
C372     C      0.529800000000     0.309450000000     0.930390000000     0.0725997  
C373     C      0.533370000000     0.257390000000     0.933760000000     0.0720529  
C374     C      0.556210000000     0.257450000000     0.909280000000    -0.0870783  
C375     C      0.328890000000     0.302230000000     0.839590000000    -0.0874432  
C376     C      0.326990000000     0.284980000000     0.869760000000     0.0348663  
C377     C      0.300820000000     0.269630000000     0.876330000000    -0.0870018  
C378     C      0.276920000000     0.272620000000     0.853630000000     0.0723017  
C379     C      0.304730000000     0.304420000000     0.817220000000     0.0723072  
C380     C      0.351690000000     0.284140000000     0.895040000000     0.0349282  
C381     C      0.365330000000     0.310280000000     0.905660000000    -0.0873461  
C382     C      0.387780000000     0.309470000000     0.930500000000     0.0725768  
C383     C      0.384200000000     0.257410000000     0.933870000000     0.0719997  
C384     C      0.361350000000     0.257480000000     0.909410000000    -0.0870841  
H1       H      0.066150000000     0.372640000000     0.631480000000     0.0518013  
H2       H      0.026570000000     0.373090000000     0.588710000000     0.0264079  
H3       H      0.020110000000     0.279100000000     0.594940000000     0.0264914  
H4       H      0.059310000000     0.278050000000     0.637760000000     0.0519711  
H5       H      0.068670000000     0.295300000000     0.699750000000     0.0516821  
H6       H      0.110510000000     0.291140000000     0.738780000000     0.0264004  
H7       H      0.160740000000     0.348570000000     0.673080000000     0.0265415  
H8       H      0.119110000000     0.353270000000     0.633660000000     0.0519749  
H9       H      0.068770000000     0.295280000000     0.333400000000     0.0516949  
H10      H      0.110630000000     0.291110000000     0.294390000000     0.0263667  
H11      H      0.160830000000     0.348530000000     0.360110000000     0.0265444  
H12      H      0.119180000000     0.353250000000     0.399510000000     0.0519734  
H13      H      0.066230000000     0.372630000000     0.401650000000     0.0517666  
H14      H      0.026610000000     0.373080000000     0.444390000000     0.026424   
H15      H      0.020160000000     0.279090000000     0.438170000000     0.0264961  
H16      H      0.059390000000     0.278030000000     0.395380000000     0.0519542  
H17      H      0.798580000000     0.353240000000     0.399340000000     0.0519309  
H18      H      0.756960000000     0.348530000000     0.359910000000     0.0265568  
H19      H      0.807190000000     0.291070000000     0.294240000000     0.0263968  
H20      H      0.849030000000     0.295240000000     0.333280000000     0.0516512  
H21      H      0.858380000000     0.278010000000     0.395270000000     0.0519601  
H22      H      0.897570000000     0.279080000000     0.438110000000     0.02645    
H23      H      0.891100000000     0.373060000000     0.444310000000     0.0264131  
H24      H      0.851520000000     0.372610000000     0.401530000000     0.0517547  
H25      H      0.858300000000     0.278020000000     0.637690000000     0.0519176  
H26      H      0.897520000000     0.279090000000     0.594890000000     0.0264696  
H27      H      0.891050000000     0.373070000000     0.588670000000     0.0264087  
H28      H      0.851450000000     0.372620000000     0.631420000000     0.0517461  
H29      H      0.848930000000     0.295270000000     0.699680000000     0.0516997  
H30      H      0.807080000000     0.291100000000     0.738700000000     0.0263604  
H31      H      0.756860000000     0.348540000000     0.673000000000     0.0265418  
H32      H      0.798510000000     0.353250000000     0.633590000000     0.0519517  
H33      H      0.640950000000     0.162000000000     0.631360000000     0.0517417  
H34      H      0.640550000000     0.122410000000     0.588600000000     0.0264046  
H35      H      0.734540000000     0.116020000000     0.594860000000     0.026468   
H36      H      0.735560000000     0.155240000000     0.637680000000     0.0518907  
H37      H      0.718270000000     0.164560000000     0.699660000000     0.0516927  
H38      H      0.722400000000     0.206400000000     0.738700000000     0.026387   
H39      H      0.664970000000     0.256610000000     0.672970000000     0.0265394  
H40      H      0.660290000000     0.214980000000     0.633550000000     0.0519384  
H41      H      0.718360000000     0.164550000000     0.333250000000     0.0517051  
H42      H      0.722510000000     0.206390000000     0.294220000000     0.0263595  
H43      H      0.665060000000     0.256600000000     0.359910000000     0.0265522  
H44      H      0.660360000000     0.214960000000     0.399330000000     0.0519564  
H45      H      0.735620000000     0.155220000000     0.395240000000     0.0519259  
H46      H      0.734590000000     0.116010000000     0.438060000000     0.0264577  
H47      H      0.640590000000     0.122400000000     0.444270000000     0.0264087  
H48      H      0.641020000000     0.161990000000     0.401510000000     0.0518011  
H49      H      0.735820000000     0.954200000000     0.395290000000     0.0519152  
H50      H      0.734710000000     0.993430000000     0.438090000000     0.0264983  
H51      H      0.640720000000     0.986890000000     0.444270000000     0.0264301  
H52      H      0.641220000000     0.947290000000     0.401520000000     0.0517812  
H53      H      0.660620000000     0.894360000000     0.399380000000     0.0519427  
H54      H      0.665370000000     0.852710000000     0.359990000000     0.0265755  
H55      H      0.722820000000     0.902940000000     0.294300000000     0.0263703  
H56      H      0.718620000000     0.944790000000     0.333310000000     0.0516898  
H57      H      0.660560000000     0.894380000000     0.633560000000     0.0519691  
H58      H      0.665280000000     0.852750000000     0.672970000000     0.0265475  
H59      H      0.722710000000     0.902980000000     0.738660000000     0.0263884  
H60      H      0.718530000000     0.944830000000     0.699640000000     0.0516869  
H61      H      0.641160000000     0.947310000000     0.631380000000     0.0517512  
H62      H      0.640680000000     0.986900000000     0.588620000000     0.0264412  
H63      H      0.734670000000     0.993440000000     0.594850000000     0.026507   
H64      H      0.735750000000     0.954220000000     0.637670000000     0.0519167  
H65      H      0.059740000000     0.831350000000     0.395410000000     0.051962   
H66      H      0.020520000000     0.830290000000     0.438220000000     0.0264823  
H67      H      0.026990000000     0.736300000000     0.444430000000     0.0264135  
H68      H      0.066580000000     0.736750000000     0.401680000000     0.0517582  
H69      H      0.119530000000     0.756130000000     0.399510000000     0.0519765  
H70      H      0.161170000000     0.760840000000     0.360110000000     0.0265198  
H71      H      0.110950000000     0.818270000000     0.294400000000     0.0263779  
H72      H      0.069100000000     0.814110000000     0.333420000000     0.0516566  
H73      H      0.059660000000     0.831370000000     0.637830000000     0.0519168  
H74      H      0.020460000000     0.830300000000     0.595000000000     0.0265299  
H75      H      0.026940000000     0.736310000000     0.588790000000     0.0264357  
H76      H      0.066510000000     0.736770000000     0.631570000000     0.051771   
H77      H      0.119460000000     0.756140000000     0.633760000000     0.0519455  
H78      H      0.161080000000     0.760850000000     0.673190000000     0.0265493  
H79      H      0.110850000000     0.818300000000     0.738860000000     0.0263895  
H80      H      0.069010000000     0.814140000000     0.699820000000     0.0516976  
H81      H      0.849270000000     0.814100000000     0.699710000000     0.0516516  
H82      H      0.807410000000     0.818270000000     0.738710000000     0.0263928  
H83      H      0.757200000000     0.760840000000     0.672990000000     0.0265404  
H84      H      0.798860000000     0.756120000000     0.633600000000     0.0519457  
H85      H      0.851810000000     0.736750000000     0.631450000000     0.0517797  
H86      H      0.891420000000     0.736300000000     0.588720000000     0.0264197  
H87      H      0.897880000000     0.830290000000     0.594930000000     0.026487   
H88      H      0.858640000000     0.831350000000     0.637730000000     0.0519107  
H89      H      0.851880000000     0.736730000000     0.401630000000     0.051727   
H90      H      0.891470000000     0.736290000000     0.444390000000     0.0264161  
H91      H      0.897930000000     0.830270000000     0.438160000000     0.0264661  
H92      H      0.858720000000     0.831330000000     0.395340000000     0.0519424  
H93      H      0.849370000000     0.814080000000     0.333350000000     0.0516452  
H94      H      0.807530000000     0.818240000000     0.294320000000     0.0263765  
H95      H      0.757300000000     0.760800000000     0.360030000000     0.0265438  
H96      H      0.798930000000     0.756100000000     0.399440000000     0.0519727  
H97      H      0.276870000000     0.162060000000     0.401720000000     0.0517986  
H98      H      0.277350000000     0.122470000000     0.444480000000     0.0263863  
H99      H      0.183370000000     0.115940000000     0.438250000000     0.0264661  
H100     H      0.182280000000     0.155150000000     0.395440000000     0.0519309  
H101     H      0.199510000000     0.164550000000     0.333460000000     0.0516715  
H102     H      0.195330000000     0.206390000000     0.294440000000     0.0263754  
H103     H      0.252760000000     0.256620000000     0.360130000000     0.0265299  
H104     H      0.257480000000     0.214990000000     0.399540000000     0.052001   
H105     H      0.276810000000     0.162090000000     0.631580000000     0.0517649  
H106     H      0.277310000000     0.122490000000     0.588830000000     0.0263974  
H107     H      0.183330000000     0.115950000000     0.595010000000     0.0264716  
H108     H      0.182220000000     0.155170000000     0.637810000000     0.0519514  
H109     H      0.199420000000     0.164580000000     0.699800000000     0.0516678  
H110     H      0.195220000000     0.206440000000     0.738800000000     0.0263907  
H111     H      0.252670000000     0.256660000000     0.673120000000     0.0265395  
H112     H      0.257410000000     0.215010000000     0.633720000000     0.0519777  
H113     H      0.199680000000     0.944830000000     0.699860000000     0.0516702  
H114     H      0.195530000000     0.902990000000     0.738890000000     0.0264028  
H115     H      0.252980000000     0.852770000000     0.673190000000     0.026548   
H116     H      0.257670000000     0.894410000000     0.633770000000     0.0519781  
H117     H      0.277020000000     0.947380000000     0.631590000000     0.0517605  
H118     H      0.277450000000     0.986970000000     0.588830000000     0.026432   
H119     H      0.183450000000     0.993360000000     0.595040000000     0.0264831  
H120     H      0.182420000000     0.954160000000     0.637860000000     0.0519715  
H121     H      0.257740000000     0.894400000000     0.399550000000     0.0520005  
H122     H      0.253070000000     0.852760000000     0.360130000000     0.0265374  
H123     H      0.195640000000     0.902970000000     0.294410000000     0.0263753  
H124     H      0.199770000000     0.944810000000     0.333440000000     0.0516988  
H125     H      0.277080000000     0.947370000000     0.401750000000     0.0517954  
H126     H      0.277490000000     0.986960000000     0.444510000000     0.0264292  
H127     H      0.183490000000     0.993350000000     0.438240000000     0.026494   
H128     H      0.182480000000     0.954140000000     0.395430000000     0.0519277  
H129     H      0.757500000000     0.394360000000     0.133530000000     0.0519152  
H130     H      0.752770000000     0.352720000000     0.172940000000     0.0265447  
H131     H      0.695340000000     0.402950000000     0.238640000000     0.0263883  
H132     H      0.699520000000     0.444800000000     0.199620000000     0.0516683  
H133     H      0.682290000000     0.454200000000     0.137650000000     0.0519263  
H134     H      0.683380000000     0.493420000000     0.094840000000     0.0264443  
H135     H      0.777360000000     0.486880000000     0.088600000000     0.0263904  
H136     H      0.776890000000     0.447290000000     0.131350000000     0.0517539  
H137     H      0.699780000000     0.664530000000     0.199710000000     0.0516737  
H138     H      0.695650000000     0.706370000000     0.238750000000     0.0263737  
H139     H      0.753090000000     0.756570000000     0.173030000000     0.0265425  
H140     H      0.757760000000     0.714940000000     0.133600000000     0.0519462  
H141     H      0.777100000000     0.661970000000     0.131390000000     0.0517324  
H142     H      0.777490000000     0.622390000000     0.088620000000     0.0263704  
H143     H      0.683500000000     0.616010000000     0.094900000000     0.026453   
H144     H      0.682500000000     0.655210000000     0.137730000000     0.051941   
H145     H      0.682400000000     0.655250000000     0.895290000000     0.051955   
H146     H      0.683440000000     0.616030000000     0.938100000000     0.0264871  
H147     H      0.777440000000     0.622430000000     0.944300000000     0.0264515  
H148     H      0.777010000000     0.662030000000     0.901540000000     0.0517519  
H149     H      0.757650000000     0.715000000000     0.899380000000     0.0519882  
H150     H      0.752960000000     0.756640000000     0.859970000000     0.0265687  
H151     H      0.695520000000     0.706420000000     0.794260000000     0.026394   
H152     H      0.699660000000     0.664580000000     0.833290000000     0.0516877  
H153     H      0.682210000000     0.454230000000     0.895280000000     0.0519804  
H154     H      0.683320000000     0.493450000000     0.938090000000     0.0264808  
H155     H      0.777310000000     0.486900000000     0.944240000000     0.0264175  
H156     H      0.776800000000     0.447310000000     0.901490000000     0.0517836  
H157     H      0.757400000000     0.394380000000     0.899350000000     0.0519567  
H158     H      0.752660000000     0.352740000000     0.859960000000     0.0265667  
H159     H      0.695210000000     0.402970000000     0.794280000000     0.0263567  
H160     H      0.699410000000     0.444820000000     0.833290000000     0.0517053  
H161     H      0.566610000000     0.872590000000     0.131450000000     0.0517585  
H162     H      0.527010000000     0.873060000000     0.088700000000     0.0263937  
H163     H      0.520530000000     0.779070000000     0.094910000000     0.0264685  
H164     H      0.559760000000     0.778000000000     0.137700000000     0.0519404  
H165     H      0.569130000000     0.795230000000     0.199690000000     0.0517278  
H166     H      0.610970000000     0.791060000000     0.238720000000     0.0263852  
H167     H      0.661200000000     0.848500000000     0.173020000000     0.0265646  
H168     H      0.619560000000     0.853210000000     0.133610000000     0.0519465  
H169     H      0.351910000000     0.872630000000     0.131580000000     0.0517745  
H170     H      0.391490000000     0.873080000000     0.088800000000     0.0264231  
H171     H      0.397950000000     0.779090000000     0.095010000000     0.0264671  
H172     H      0.358740000000     0.778030000000     0.137840000000     0.0519383  
H173     H      0.298960000000     0.853260000000     0.133740000000     0.0519342  
H174     H      0.257310000000     0.848550000000     0.173140000000     0.0265367  
H175     H      0.307530000000     0.791110000000     0.238850000000     0.0263823  
H176     H      0.349380000000     0.795270000000     0.199830000000     0.0516548  
H177     H      0.358630000000     0.778040000000     0.895450000000     0.0519727  
H178     H      0.397860000000     0.779100000000     0.938240000000     0.0264772  
H179     H      0.391400000000     0.873080000000     0.944480000000     0.0264465  
H180     H      0.351780000000     0.872640000000     0.901750000000     0.05178    
H181     H      0.298830000000     0.853260000000     0.899580000000     0.0519957  
H182     H      0.257190000000     0.848550000000     0.860180000000     0.0265492  
H183     H      0.307410000000     0.791130000000     0.794460000000     0.0263764  
H184     H      0.349260000000     0.795290000000     0.833480000000     0.0516719  
H185     H      0.566480000000     0.872630000000     0.901560000000     0.0517942  
H186     H      0.526910000000     0.873080000000     0.944350000000     0.0264486  
H187     H      0.520450000000     0.779090000000     0.938120000000     0.0264931  
H188     H      0.559640000000     0.778040000000     0.895280000000     0.0519682  
H189     H      0.619420000000     0.853270000000     0.899360000000     0.0519802  
H190     H      0.661050000000     0.848560000000     0.859940000000     0.0265754  
H191     H      0.610830000000     0.791120000000     0.794260000000     0.0263732  
H192     H      0.568990000000     0.795280000000     0.833290000000     0.0516665  
H193     H      0.141230000000     0.662070000000     0.131620000000     0.0517348  
H194     H      0.140730000000     0.622470000000     0.088860000000     0.0264231  
H195     H      0.234710000000     0.615930000000     0.095020000000     0.0264458  
H196     H      0.235830000000     0.655140000000     0.137830000000     0.0519001  
H197     H      0.218630000000     0.664550000000     0.199820000000     0.0516746  
H198     H      0.222830000000     0.706410000000     0.238830000000     0.0263829  
H199     H      0.165380000000     0.756630000000     0.173150000000     0.0265265  
H200     H      0.160640000000     0.714990000000     0.133760000000     0.0520025  
H201     H      0.141030000000     0.447350000000     0.131560000000     0.0517354  
H202     H      0.140600000000     0.486950000000     0.088810000000     0.026401   
H203     H      0.234590000000     0.493340000000     0.095000000000     0.0264235  
H204     H      0.235630000000     0.454130000000     0.137810000000     0.0519311  
H205     H      0.160390000000     0.394370000000     0.133720000000     0.0519426  
H206     H      0.165080000000     0.352740000000     0.173130000000     0.0265328  
H207     H      0.222520000000     0.402950000000     0.238840000000     0.0263753  
H208     H      0.218370000000     0.444790000000     0.199810000000     0.0517027  
H209     H      0.218260000000     0.444850000000     0.833400000000     0.0516904  
H210     H      0.222380000000     0.403010000000     0.794350000000     0.0263789  
H211     H      0.164950000000     0.352800000000     0.860080000000     0.0265592  
H212     H      0.160270000000     0.394430000000     0.899500000000     0.0520006  
H213     H      0.140940000000     0.447410000000     0.901710000000     0.0518058  
H214     H      0.140540000000     0.486990000000     0.944490000000     0.0264394  
H215     H      0.234530000000     0.493370000000     0.938210000000     0.0265048  
H216     H      0.235540000000     0.454160000000     0.895380000000     0.0519454  
H217     H      0.218520000000     0.664570000000     0.833480000000     0.051689   
H218     H      0.222700000000     0.706420000000     0.794470000000     0.0263723  
H219     H      0.165270000000     0.756650000000     0.860170000000     0.0265529  
H220     H      0.160540000000     0.715020000000     0.899570000000     0.0519731  
H221     H      0.235740000000     0.655180000000     0.895450000000     0.0519568  
H222     H      0.234660000000     0.615960000000     0.938260000000     0.0264996  
H223     H      0.140680000000     0.622490000000     0.944510000000     0.026437   
H224     H      0.141150000000     0.662090000000     0.901750000000     0.051764   
H225     H      0.351560000000     0.236740000000     0.131550000000     0.0517672  
H226     H      0.391130000000     0.236290000000     0.088760000000     0.0263995  
H227     H      0.397590000000     0.330280000000     0.094980000000     0.0264455  
H228     H      0.358400000000     0.331340000000     0.137820000000     0.0519525  
H229     H      0.349050000000     0.314100000000     0.199810000000     0.0516647  
H230     H      0.307200000000     0.318260000000     0.238850000000     0.0263634  
H231     H      0.256980000000     0.260810000000     0.173160000000     0.0265295  
H232     H      0.298620000000     0.256100000000     0.133740000000     0.051933   
H233     H      0.568780000000     0.314080000000     0.199630000000     0.0516827  
H234     H      0.610630000000     0.318240000000     0.238640000000     0.0263735  
H235     H      0.660850000000     0.260820000000     0.172920000000     0.0265461  
H236     H      0.619210000000     0.256110000000     0.133520000000     0.051941   
H237     H      0.559410000000     0.331330000000     0.137650000000     0.0519397  
H238     H      0.520180000000     0.330270000000     0.094860000000     0.0264521  
H239     H      0.526640000000     0.236290000000     0.088620000000     0.0263911  
H240     H      0.566250000000     0.236730000000     0.131350000000     0.0517311  
H241     H      0.619080000000     0.256110000000     0.899360000000     0.0519889  
H242     H      0.660720000000     0.260820000000     0.859960000000     0.0265601  
H243     H      0.610510000000     0.318260000000     0.794260000000     0.0263606  
H244     H      0.568660000000     0.314100000000     0.833280000000     0.0517096  
H245     H      0.559290000000     0.331340000000     0.895270000000     0.0519665  
H246     H      0.520090000000     0.330280000000     0.938090000000     0.0264706  
H247     H      0.526550000000     0.236290000000     0.944300000000     0.0264345  
H248     H      0.566130000000     0.236740000000     0.901530000000     0.0517412  
H249     H      0.298470000000     0.256160000000     0.899490000000     0.0519851  
H250     H      0.256840000000     0.260880000000     0.860080000000     0.0265477  
H251     H      0.307070000000     0.318310000000     0.794390000000     0.0263649  
H252     H      0.348910000000     0.314140000000     0.833410000000     0.0516922  
H253     H      0.358280000000     0.331380000000     0.895400000000     0.0519462  
H254     H      0.397500000000     0.330300000000     0.938200000000     0.026497   
H255     H      0.391030000000     0.236320000000     0.944400000000     0.026459   
H256     H      0.351420000000     0.236780000000     0.901660000000     0.051758   
N1       N      0.020490000000     0.326150000000     0.588510000000    -0.197677   
N2       N      0.138880000000     0.319190000000     0.708580000000    -0.197598   
N3       N      0.138990000000     0.319150000000     0.324600000000    -0.197706   
N4       N      0.020540000000     0.326140000000     0.444600000000    -0.197735   
N5       N      0.778810000000     0.319130000000     0.324420000000    -0.197664   
N6       N      0.897180000000     0.326120000000     0.444530000000    -0.197686   
N7       N      0.897130000000     0.326130000000     0.588460000000    -0.197685   
N8       N      0.778710000000     0.319150000000     0.708500000000    -0.197799   
N9       N      0.687500000000     0.116370000000     0.588410000000    -0.197733   
N10      N      0.694350000000     0.234770000000     0.708490000000    -0.197731   
N11      N      0.694450000000     0.234750000000     0.324410000000    -0.19766    
N12      N      0.687540000000     0.116360000000     0.444490000000    -0.197753   
N13      N      0.687660000000     0.993000000000     0.444500000000    -0.197668   
N14      N      0.694760000000     0.874570000000     0.324490000000    -0.197642   
N15      N      0.694660000000     0.874610000000     0.708470000000    -0.197625   
N16      N      0.687620000000     0.993010000000     0.588420000000    -0.19767    
N17      N      0.020900000000     0.783240000000     0.444640000000    -0.197736   
N18      N      0.139320000000     0.790220000000     0.324600000000    -0.197726   
N19      N      0.020850000000     0.783250000000     0.588570000000    -0.197632   
N20      N      0.139220000000     0.790240000000     0.708680000000    -0.197684   
N21      N      0.779050000000     0.790220000000     0.708500000000    -0.197642   
N22      N      0.897500000000     0.783240000000     0.588510000000    -0.197668   
N23      N      0.897550000000     0.783230000000     0.444600000000    -0.197779   
N24      N      0.779150000000     0.790190000000     0.324520000000    -0.19773    
N25      N      0.230420000000     0.116360000000     0.444680000000    -0.197713   
N26      N      0.223380000000     0.234770000000     0.324630000000    -0.197733   
N27      N      0.230380000000     0.116370000000     0.588600000000    -0.197742   
N28      N      0.223280000000     0.234810000000     0.708610000000    -0.197683   
N29      N      0.223590000000     0.874620000000     0.708690000000    -0.19762    
N30      N      0.230500000000     0.993010000000     0.588620000000    -0.197668   
N31      N      0.223690000000     0.874610000000     0.324620000000    -0.197655   
N32      N      0.230540000000     0.993000000000     0.444690000000    -0.197611   
N33      N      0.723390000000     0.374580000000     0.208440000000    -0.197633   
N34      N      0.730420000000     0.493000000000     0.088400000000    -0.197802   
N35      N      0.723700000000     0.734730000000     0.208540000000    -0.197697   
N36      N      0.730550000000     0.616350000000     0.088440000000    -0.197715   
N37      N      0.730490000000     0.616380000000     0.944510000000    -0.197617   
N38      N      0.723570000000     0.734790000000     0.824460000000    -0.19762    
N39      N      0.730370000000     0.493020000000     0.944480000000    -0.197721   
N40      N      0.723260000000     0.374600000000     0.824460000000    -0.197685   
N41      N      0.520920000000     0.826120000000     0.088490000000    -0.197662   
N42      N      0.639340000000     0.819110000000     0.208530000000    -0.197604   
N43      N      0.397570000000     0.826130000000     0.088590000000    -0.197655   
N44      N      0.279160000000     0.819160000000     0.208650000000    -0.197696   
N45      N      0.397480000000     0.826140000000     0.944670000000    -0.197684   
N46      N      0.279040000000     0.819170000000     0.824670000000    -0.197662   
N47      N      0.520840000000     0.826140000000     0.944560000000    -0.197644   
N48      N      0.639200000000     0.819170000000     0.824440000000    -0.197669   
N49      N      0.187670000000     0.616350000000     0.088620000000    -0.197722   
N50      N      0.194770000000     0.734780000000     0.208640000000    -0.197685   
N51      N      0.187550000000     0.492990000000     0.088590000000    -0.197709   
N52      N      0.194470000000     0.374580000000     0.208640000000    -0.19773    
N53      N      0.194330000000     0.374650000000     0.824560000000    -0.197669   
N54      N      0.187490000000     0.493020000000     0.944670000000    -0.197651   
N55      N      0.194650000000     0.734790000000     0.824660000000    -0.197677   
N56      N      0.187610000000     0.616380000000     0.944700000000    -0.197639   
N57      N      0.397200000000     0.283240000000     0.088550000000    -0.197624   
N58      N      0.278840000000     0.290200000000     0.208660000000    -0.197735   
N59      N      0.639000000000     0.290200000000     0.208440000000    -0.197667   
N60      N      0.520560000000     0.283230000000     0.088430000000    -0.197714   
N61      N      0.638870000000     0.290210000000     0.824450000000    -0.197648   
N62      N      0.520470000000     0.283240000000     0.944510000000    -0.197698   
N63      N      0.278700000000     0.290260000000     0.824580000000    -0.197665   
N64      N      0.397110000000     0.283260000000     0.944620000000    -0.197633   
Ni1      Ni     0.458840000000     0.309160000000     0.016530000000     1.01141    
Ni2      Ni     0.458830000000     0.256740000000     0.016520000000     0.99465    
Ni3      Ni     0.213500000000     0.554660000000     0.016630000000     1.01155    
Ni4      Ni     0.161080000000     0.554710000000     0.016660000000     0.994719   
Ni5      Ni     0.459210000000     0.852630000000     0.016580000000     0.994469   
Ni6      Ni     0.459200000000     0.800220000000     0.016570000000     1.01138    
Ni7      Ni     0.756950000000     0.554660000000     0.016440000000     0.994792   
Ni8      Ni     0.704540000000     0.554710000000     0.016470000000     1.0114     
Ni9      Ni     0.256950000000     0.054710000000     0.516660000000     0.99506    
Ni10     Ni     0.204540000000     0.054660000000     0.516640000000     1.01161    
Ni11     Ni     0.959200000000     0.809160000000     0.516580000000     1.01159    
Ni12     Ni     0.959210000000     0.756750000000     0.516580000000     0.994979   
Ni13     Ni     0.713490000000     0.054710000000     0.516460000000     1.01156    
Ni14     Ni     0.661090000000     0.054660000000     0.516440000000     0.994761   
Ni15     Ni     0.958830000000     0.352630000000     0.516520000000     0.994826   
Ni16     Ni     0.958840000000     0.300220000000     0.516530000000     1.01162    
Ni17     Ni     0.194430000000     0.290180000000     0.247300000000     1.0033     
Ni18     Ni     0.223400000000     0.319160000000     0.285970000000     1.00325    
Ni19     Ni     0.723400000000     0.290180000000     0.247100000000     1.00302    
Ni20     Ni     0.694420000000     0.319160000000     0.285750000000     1.00316    
Ni21     Ni     0.694310000000     0.319170000000     0.747150000000     1.00296    
Ni22     Ni     0.723280000000     0.290190000000     0.785810000000     1.00335    
Ni23     Ni     0.694760000000     0.790160000000     0.285850000000     1.00305    
Ni24     Ni     0.723740000000     0.819130000000     0.247190000000     1.00304    
Ni25     Ni     0.694630000000     0.790210000000     0.747140000000     1.00329    
Ni26     Ni     0.723610000000     0.819190000000     0.785800000000     1.00333    
Ni27     Ni     0.223730000000     0.790200000000     0.285960000000     1.00331    
Ni28     Ni     0.194750000000     0.819180000000     0.247290000000     1.00356    
Ni29     Ni     0.223620000000     0.790220000000     0.747350000000     1.00335    
Ni30     Ni     0.194630000000     0.819200000000     0.786010000000     1.00316    
Ni31     Ni     0.194300000000     0.290240000000     0.785910000000     1.00319    
Ni32     Ni     0.223280000000     0.319210000000     0.747250000000     1.00342    
O1       O      0.488560000000     0.307470000000     0.981200000000    -0.452135   
O2       O      0.429110000000     0.307470000000     0.051860000000    -0.452156   
O3       O      0.488610000000     0.307460000000     0.051810000000    -0.452338   
O4       O      0.429060000000     0.307480000000     0.981250000000    -0.451934   
O5       O      0.428830000000     0.258490000000     0.981260000000    -0.447819   
O6       O      0.488830000000     0.258480000000     0.051780000000    -0.447931   
O7       O      0.428880000000     0.258480000000     0.051840000000    -0.447942   
O8       O      0.488780000000     0.258490000000     0.981210000000    -0.447996   
O9       O      0.211770000000     0.524920000000     0.981320000000    -0.452151   
O10      O      0.211850000000     0.584410000000     0.051940000000    -0.452277   
O11      O      0.211790000000     0.524910000000     0.051930000000    -0.45232    
O12      O      0.211830000000     0.584420000000     0.981340000000    -0.452091   
O13      O      0.162840000000     0.584690000000     0.981380000000    -0.447744   
O14      O      0.162810000000     0.524730000000     0.051940000000    -0.448065   
O15      O      0.162870000000     0.584680000000     0.051950000000    -0.448042   
O16      O      0.162780000000     0.524740000000     0.981370000000    -0.447837   
O17      O      0.489160000000     0.850890000000     0.981270000000    -0.447804   
O18      O      0.429250000000     0.850890000000     0.051900000000    -0.447877   
O19      O      0.489200000000     0.850880000000     0.051840000000    -0.447926   
O20      O      0.429210000000     0.850890000000     0.981320000000    -0.447923   
O21      O      0.429430000000     0.801910000000     0.981300000000    -0.452155   
O22      O      0.488970000000     0.801890000000     0.051850000000    -0.452069   
O23      O      0.429470000000     0.801900000000     0.051900000000    -0.452167   
O24      O      0.488930000000     0.801900000000     0.981240000000    -0.452002   
O25      O      0.755170000000     0.524700000000     0.981150000000    -0.447975   
O26      O      0.755250000000     0.584630000000     0.051740000000    -0.448056   
O27      O      0.755190000000     0.524680000000     0.051720000000    -0.448029   
O28      O      0.755230000000     0.584640000000     0.981170000000    -0.447767   
O29      O      0.706240000000     0.584470000000     0.981180000000    -0.452046   
O30      O      0.706210000000     0.524960000000     0.051770000000    -0.452261   
O31      O      0.706270000000     0.584460000000     0.051780000000    -0.452213   
O32      O      0.706190000000     0.524970000000     0.981160000000    -0.452215   
O33      O      0.255250000000     0.024730000000     0.481380000000    -0.44816    
O34      O      0.255170000000     0.084690000000     0.551940000000    -0.448061   
O35      O      0.255230000000     0.024740000000     0.551950000000    -0.448076   
O36      O      0.255190000000     0.084680000000     0.481370000000    -0.448063   
O37      O      0.206210000000     0.084410000000     0.481340000000    -0.452252   
O38      O      0.206250000000     0.024910000000     0.551950000000    -0.452275   
O39      O      0.206190000000     0.084420000000     0.551940000000    -0.45229    
O40      O      0.206270000000     0.024910000000     0.481340000000    -0.452329   
O41      O      0.988960000000     0.807470000000     0.481290000000    -0.452331   
O42      O      0.929440000000     0.807470000000     0.551870000000    -0.452187   
O43      O      0.988940000000     0.807480000000     0.551900000000    -0.452146   
O44      O      0.929460000000     0.807460000000     0.481260000000    -0.452304   
O45      O      0.929240000000     0.758480000000     0.481280000000    -0.447917   
O46      O      0.989170000000     0.758490000000     0.551880000000    -0.448002   
O47      O      0.929220000000     0.758480000000     0.551850000000    -0.44792    
O48      O      0.989190000000     0.758490000000     0.481310000000    -0.448053   
O49      O      0.711850000000     0.024960000000     0.481160000000    -0.452354   
O50      O      0.711770000000     0.084460000000     0.551760000000    -0.452188   
O51      O      0.711830000000     0.024960000000     0.551770000000    -0.45217    
O52      O      0.711790000000     0.084460000000     0.481150000000    -0.452246   
O53      O      0.662810000000     0.084640000000     0.481160000000    -0.448036   
O54      O      0.662850000000     0.024690000000     0.551740000000    -0.447961   
O55      O      0.662790000000     0.084640000000     0.551730000000    -0.447953   
O56      O      0.662870000000     0.024690000000     0.481160000000    -0.448118   
O57      O      0.988820000000     0.350890000000     0.481250000000    -0.447922   
O58      O      0.928840000000     0.350890000000     0.551800000000    -0.447884   
O59      O      0.988790000000     0.350890000000     0.551820000000    -0.4481     
O60      O      0.928870000000     0.350880000000     0.481220000000    -0.448005   
O61      O      0.929100000000     0.301900000000     0.481210000000    -0.45223    
O62      O      0.988570000000     0.301910000000     0.551840000000    -0.452345   
O63      O      0.929070000000     0.301900000000     0.551820000000    -0.452104   
O64      O      0.988600000000     0.301900000000     0.481230000000    -0.452118   
O65      O      0.161160000000     0.298930000000     0.276240000000    -0.450608   
O66      O      0.229670000000     0.283220000000     0.220930000000    -0.449717   
O67      O      0.203160000000     0.256920000000     0.276260000000    -0.450647   
O68      O      0.187480000000     0.325420000000     0.220920000000    -0.449679   
O69      O      0.214670000000     0.352430000000     0.257010000000    -0.450589   
O70      O      0.230350000000     0.283930000000     0.312350000000    -0.449816   
O71      O      0.256670000000     0.310420000000     0.257020000000    -0.450583   
O72      O      0.188160000000     0.326130000000     0.312340000000    -0.449604   
O73      O      0.730360000000     0.325410000000     0.220710000000    -0.449619   
O74      O      0.714660000000     0.256910000000     0.276040000000    -0.450515   
O75      O      0.688170000000     0.283220000000     0.220710000000    -0.449604   
O76      O      0.756670000000     0.298910000000     0.276050000000    -0.45043    
O77      O      0.729650000000     0.326110000000     0.312140000000    -0.449711   
O78      O      0.661160000000     0.310420000000     0.256800000000    -0.450615   
O79      O      0.687460000000     0.283920000000     0.312140000000    -0.449476   
O80      O      0.703160000000     0.352420000000     0.256800000000    -0.45073    
O81      O      0.703040000000     0.352440000000     0.776100000000    -0.450483   
O82      O      0.687360000000     0.283930000000     0.720760000000    -0.449541   
O83      O      0.661040000000     0.310430000000     0.776090000000    -0.450502   
O84      O      0.729550000000     0.326130000000     0.720770000000    -0.449602   
O85      O      0.756550000000     0.298930000000     0.756860000000    -0.45059    
O86      O      0.688050000000     0.283230000000     0.812190000000    -0.449515   
O87      O      0.714550000000     0.256930000000     0.756860000000    -0.450771   
O88      O      0.730240000000     0.325430000000     0.812190000000    -0.449615   
O89      O      0.687790000000     0.825400000000     0.312230000000    -0.449502   
O90      O      0.703500000000     0.756890000000     0.256910000000    -0.450625   
O91      O      0.729990000000     0.783210000000     0.312240000000    -0.449719   
O92      O      0.661490000000     0.798890000000     0.256900000000    -0.45034    
O93      O      0.688510000000     0.826090000000     0.220800000000    -0.449554   
O94      O      0.757000000000     0.810400000000     0.276150000000    -0.450597   
O95      O      0.730700000000     0.783890000000     0.220810000000    -0.449715   
O96      O      0.715000000000     0.852400000000     0.276140000000    -0.450527   
O97      O      0.729870000000     0.783250000000     0.720760000000    -0.449463   
O98      O      0.661360000000     0.798950000000     0.776080000000    -0.450598   
O99      O      0.687680000000     0.825440000000     0.720750000000    -0.449638   
O100     O      0.703360000000     0.756950000000     0.776090000000    -0.450518   
O101     O      0.730560000000     0.783960000000     0.812190000000    -0.449625   
O102     O      0.714880000000     0.852450000000     0.756840000000    -0.450562   
O103     O      0.688370000000     0.826150000000     0.812170000000    -0.449701   
O104     O      0.756880000000     0.810450000000     0.756860000000    -0.450466   
O105     O      0.188490000000     0.783250000000     0.312330000000    -0.449826   
O106     O      0.257000000000     0.798940000000     0.257010000000    -0.450552   
O107     O      0.230680000000     0.825440000000     0.312340000000    -0.449617   
O108     O      0.215000000000     0.756940000000     0.257000000000    -0.450614   
O109     O      0.187800000000     0.783950000000     0.220910000000    -0.449775   
O110     O      0.203490000000     0.852450000000     0.276240000000    -0.450523   
O111     O      0.229990000000     0.826140000000     0.220920000000    -0.449723   
O112     O      0.161490000000     0.810440000000     0.276240000000    -0.450757   
O113     O      0.230580000000     0.825450000000     0.720970000000    -0.449664   
O114     O      0.214880000000     0.756950000000     0.776300000000    -0.450448   
O115     O      0.188390000000     0.783260000000     0.720960000000    -0.449516   
O116     O      0.256880000000     0.798960000000     0.776300000000    -0.450729   
O117     O      0.229870000000     0.826150000000     0.812390000000    -0.449664   
O118     O      0.161370000000     0.810460000000     0.757050000000    -0.450503   
O119     O      0.187670000000     0.783960000000     0.812390000000    -0.449571   
O120     O      0.203370000000     0.852460000000     0.757060000000    -0.450511   
O121     O      0.203040000000     0.256970000000     0.756970000000    -0.450523   
O122     O      0.187340000000     0.325480000000     0.812290000000    -0.449541   
O123     O      0.161040000000     0.298970000000     0.756960000000    -0.450479   
O124     O      0.229530000000     0.283290000000     0.812300000000    -0.449711   
O125     O      0.256540000000     0.310480000000     0.776210000000    -0.450611   
O126     O      0.188050000000     0.326170000000     0.720860000000    -0.449579   
O127     O      0.214540000000     0.352480000000     0.776190000000    -0.450613   
O128     O      0.230240000000     0.283980000000     0.720880000000    -0.449843   


