data_structure

_audit_creation_method RASPA-1.0
_audit_creation_date 2023-5-23
_audit_author_name 'Poobodin Mano'

_cell_length_a    29.964
_cell_length_b    29.9613
_cell_length_c    59.8088
_cell_angle_alpha 90
_cell_angle_beta  90
_cell_angle_gamma 90
_cell_volume      53694

_symmetry_cell_setting          triclinic
_symmetry_space_group_name_Hall 'P 1'
_symmetry_space_group_name_H-M  'P 1'
_symmetry_Int_Tables_number     1

_symmetry_equiv_pos_as_xyz 'x,y,z'

loop_
_atom_site_label
_atom_site_type_symbol
_atom_site_fract_x
_atom_site_fract_y
_atom_site_fract_z
_atom_site_charge
C1       C      0.993820000000     0.000850000000     0.162460000000     0.434179   
C2       C      0.993730000000     0.001830000000     0.076970000000     0.434468   
C3       C      0.993770000000     0.916130000000     0.119500000000     0.434471   
C4       C      0.993780000000     0.086760000000     0.119920000000     0.434473   
C5       C      0.993670000000     0.501660000000     0.162490000000     0.434303   
C6       C      0.993620000000     0.501350000000     0.077000000000     0.434402   
C7       C      0.993610000000     0.416150000000     0.119840000000     0.434388   
C8       C      0.993700000000     0.586790000000     0.119650000000     0.434578   
C9       C      0.493280000000     0.070870000000     0.119500000000     0.434543   
C10      C      0.493280000000     0.900230000000     0.119920000000     0.434389   
C11      C      0.493250000000     0.986150000000     0.162460000000     0.434417   
C12      C      0.493300000000     0.985170000000     0.076970000000     0.434402   
C13      C      0.493350000000     0.400210000000     0.119640000000     0.434774   
C14      C      0.493440000000     0.570850000000     0.119850000000     0.434469   
C15      C      0.493410000000     0.485670000000     0.077000000000     0.434777   
C16      C      0.493410000000     0.485320000000     0.162490000000     0.434411   
C17      C      0.993510000000     0.916230000000     0.869120000000     0.43458    
C18      C      0.993420000000     0.086870000000     0.869320000000     0.434387   
C19      C      0.993500000000     0.001410000000     0.911970000000     0.434492   
C20      C      0.993450000000     0.001760000000     0.826470000000     0.434302   
C21      C      0.993350000000     0.586840000000     0.869040000000     0.434383   
C22      C      0.993350000000     0.416200000000     0.869460000000     0.434361   
C23      C      0.993390000000     0.501910000000     0.912000000000     0.434457   
C24      C      0.993300000000     0.500930000000     0.826510000000     0.43422    
C25      C      0.493530000000     0.985430000000     0.826480000000     0.43456    
C26      C      0.493480000000     0.985740000000     0.911970000000     0.434642   
C27      C      0.493470000000     0.070940000000     0.869130000000     0.434549   
C28      C      0.493560000000     0.900300000000     0.869320000000     0.43456    
C29      C      0.493680000000     0.486240000000     0.826510000000     0.434274   
C30      C      0.493590000000     0.485260000000     0.912000000000     0.434428   
C31      C      0.493630000000     0.400330000000     0.869040000000     0.434575   
C32      C      0.493620000000     0.570970000000     0.869460000000     0.434566   
C33      C      0.908250000000     0.993080000000     0.368990000000     0.434438   
C34      C      0.078890000000     0.993130000000     0.369500000000     0.43459    
C35      C      0.992990000000     0.991550000000     0.411980000000     0.43438    
C36      C      0.994050000000     0.994600000000     0.326510000000     0.434443   
C37      C      0.993930000000     0.496260000000     0.326510000000     0.434457   
C38      C      0.993070000000     0.491640000000     0.411990000000     0.434939   
C39      C      0.078910000000     0.493840000000     0.369450000000     0.435064   
C40      C      0.908260000000     0.493810000000     0.369060000000     0.434991   
C41      C      0.494120000000     0.995590000000     0.411980000000     0.434613   
C42      C      0.493070000000     0.992490000000     0.326510000000     0.434391   
C43      C      0.578860000000     0.994030000000     0.368990000000     0.434559   
C44      C      0.408230000000     0.993980000000     0.369500000000     0.434339   
C45      C      0.578860000000     0.493200000000     0.369060000000     0.434895   
C46      C      0.408220000000     0.493170000000     0.369450000000     0.434801   
C47      C      0.493200000000     0.490730000000     0.326510000000     0.434656   
C48      C      0.494040000000     0.495380000000     0.411990000000     0.434762   
C49      C      0.078800000000     0.993920000000     0.619900000000     0.434966   
C50      C      0.908150000000     0.993940000000     0.619520000000     0.434921   
C51      C      0.993150000000     0.996380000000     0.662450000000     0.434587   
C52      C      0.993970000000     0.991740000000     0.576970000000     0.434792   
C53      C      0.078810000000     0.493080000000     0.619970000000     0.434518   
C54      C      0.908180000000     0.493130000000     0.619480000000     0.434346   
C55      C      0.993030000000     0.494610000000     0.662460000000     0.434409   
C56      C      0.994060000000     0.491530000000     0.576990000000     0.434775   
C57      C      0.408200000000     0.993300000000     0.619900000000     0.434983   
C58      C      0.578840000000     0.993270000000     0.619530000000     0.434822   
C59      C      0.493840000000     0.990840000000     0.662450000000     0.434847   
C60      C      0.493030000000     0.995470000000     0.576970000000     0.434929   
C61      C      0.493970000000     0.492510000000     0.662460000000     0.434294   
C62      C      0.492960000000     0.495560000000     0.576990000000     0.434552   
C63      C      0.408200000000     0.494030000000     0.619970000000     0.434584   
C64      C      0.578840000000     0.493970000000     0.619480000000     0.434507   
C65      C      0.792510000000     0.454630000000     0.624530000000    -0.0863327  
C66      C      0.768470000000     0.493470000000     0.619300000000     0.0347571  
C67      C      0.792760000000     0.532160000000     0.614080000000    -0.0863294  
C68      C      0.839360000000     0.531590000000     0.614500000000     0.0723605  
C69      C      0.839120000000     0.454940000000     0.624190000000     0.072281   
C70      C      0.718550000000     0.493640000000     0.619300000000     0.034695   
C71      C      0.694250000000     0.454940000000     0.614090000000    -0.0863021  
C72      C      0.647650000000     0.455510000000     0.614510000000     0.0723922  
C73      C      0.647890000000     0.532170000000     0.624190000000     0.0722317  
C74      C      0.694500000000     0.532480000000     0.624520000000    -0.086259   
C75      C      0.194190000000     0.532240000000     0.625150000000    -0.0863191  
C76      C      0.218530000000     0.493450000000     0.620140000000     0.0347115  
C77      C      0.194460000000     0.454490000000     0.615130000000    -0.0861754  
C78      C      0.147850000000     0.454770000000     0.615510000000     0.0723581  
C79      C      0.147600000000     0.531650000000     0.624700000000     0.0724744  
C80      C      0.268480000000     0.493650000000     0.620140000000     0.0347336  
C81      C      0.292550000000     0.532620000000     0.615120000000    -0.086243   
C82      C      0.339160000000     0.532340000000     0.615510000000     0.0723854  
C83      C      0.339410000000     0.455460000000     0.624710000000     0.0724484  
C84      C      0.292820000000     0.454870000000     0.625160000000    -0.0863438  
C85      C      0.792700000000     0.954890000000     0.624490000000    -0.086429   
C86      C      0.768460000000     0.993660000000     0.619340000000     0.0347762  
C87      C      0.792580000000     0.032540000000     0.614250000000    -0.0863314  
C88      C      0.839180000000     0.032210000000     0.614700000000     0.0724902  
C89      C      0.839290000000     0.955440000000     0.624140000000     0.0724911  
C90      C      0.718530000000     0.993550000000     0.619350000000     0.0347579  
C91      C      0.694410000000     0.954670000000     0.614250000000    -0.0863004  
C92      C      0.647810000000     0.955000000000     0.614700000000     0.0724524  
C93      C      0.647700000000     0.031770000000     0.624150000000     0.0724817  
C94      C      0.694290000000     0.032310000000     0.624490000000    -0.0863676  
C95      C      0.194370000000     0.032700000000     0.615230000000    -0.08629    
C96      C      0.218500000000     0.993670000000     0.620050000000     0.0348279  
C97      C      0.194190000000     0.954750000000     0.624860000000    -0.0863504  
C98      C      0.147600000000     0.955270000000     0.624370000000     0.07266    
C99      C      0.147770000000     0.032370000000     0.615650000000     0.0726713  
C100     C      0.268490000000     0.993550000000     0.620050000000     0.0348163  
C101     C      0.292800000000     0.032470000000     0.624850000000    -0.0863501  
C102     C      0.339390000000     0.031950000000     0.624360000000     0.0726775  
C103     C      0.339220000000     0.954850000000     0.615650000000     0.0726455  
C104     C      0.292620000000     0.954510000000     0.615230000000    -0.086298   
C105     C      0.481990000000     0.458270000000     0.518940000000    -0.0863699  
C106     C      0.492950000000     0.497110000000     0.507000000000     0.0347963  
C107     C      0.503310000000     0.535670000000     0.519300000000    -0.0860422  
C108     C      0.502370000000     0.534810000000     0.542660000000     0.0723026  
C109     C      0.482710000000     0.458250000000     0.542270000000     0.0726232  
C110     C      0.493810000000     0.497130000000     0.481980000000     0.0348533  
C111     C      0.503720000000     0.458020000000     0.470060000000    -0.086494   
C112     C      0.503160000000     0.458020000000     0.446750000000     0.072741   
C113     C      0.485750000000     0.535120000000     0.446280000000     0.0723318  
C114     C      0.484680000000     0.536010000000     0.469660000000    -0.0860014  
C115     C      0.502410000000     0.036080000000     0.519300000000    -0.0860317  
C116     C      0.493290000000     0.997200000000     0.506990000000     0.0349142  
C117     C      0.483370000000     0.958090000000     0.518910000000    -0.0866198  
C118     C      0.483920000000     0.958110000000     0.542220000000     0.0728842  
C119     C      0.501330000000     0.035200000000     0.542680000000     0.0723311  
C120     C      0.494140000000     0.997180000000     0.481970000000     0.0347744  
C121     C      0.483780000000     0.035730000000     0.469670000000    -0.0860337  
C122     C      0.484720000000     0.034850000000     0.446300000000     0.0722639  
C123     C      0.504390000000     0.958300000000     0.446700000000     0.07271    
C124     C      0.505110000000     0.958330000000     0.470030000000    -0.0863996  
C125     C      0.005070000000     0.528790000000     0.518940000000    -0.0862589  
C126     C      0.994110000000     0.489950000000     0.507000000000     0.0347313  
C127     C      0.983740000000     0.451390000000     0.519300000000    -0.0861429  
C128     C      0.984670000000     0.452270000000     0.542660000000     0.0722869  
C129     C      0.004340000000     0.528830000000     0.542270000000     0.0727443  
C130     C      0.993270000000     0.489920000000     0.481980000000     0.0347037  
C131     C      0.983370000000     0.529030000000     0.470050000000    -0.0865154  
C132     C      0.983940000000     0.529010000000     0.446740000000     0.0728379  
C133     C      0.001350000000     0.451910000000     0.446290000000     0.0723579  
C134     C      0.002410000000     0.451040000000     0.469660000000    -0.0858284  
C135     C      0.792690000000     0.532600000000     0.373720000000    -0.0862914  
C136     C      0.768550000000     0.493570000000     0.368900000000     0.0347907  
C137     C      0.792870000000     0.454640000000     0.364100000000    -0.0863354  
C138     C      0.839460000000     0.455160000000     0.364590000000     0.0726658  
C139     C      0.839290000000     0.532260000000     0.373300000000     0.0726544  
C140     C      0.718570000000     0.493440000000     0.368900000000     0.0348321  
C141     C      0.694440000000     0.454410000000     0.373720000000    -0.0863289  
C142     C      0.647840000000     0.454750000000     0.373310000000     0.0726953  
C143     C      0.647660000000     0.531840000000     0.364590000000     0.0726436  
C144     C      0.694250000000     0.532360000000     0.364100000000    -0.0863301  
C145     C      0.292650000000     0.454570000000     0.374730000000    -0.0862846  
C146     C      0.268530000000     0.493450000000     0.369630000000     0.0347848  
C147     C      0.292760000000     0.532210000000     0.364490000000    -0.08638    
C148     C      0.339350000000     0.531670000000     0.364830000000     0.0724423  
C149     C      0.339250000000     0.454900000000     0.374280000000     0.0724485  
C150     C      0.218600000000     0.493560000000     0.369630000000     0.0347681  
C151     C      0.194360000000     0.454790000000     0.364490000000    -0.086396   
C152     C      0.147770000000     0.455340000000     0.364830000000     0.0725368  
C153     C      0.147870000000     0.532110000000     0.374280000000     0.0724058  
C154     C      0.194480000000     0.532440000000     0.374730000000    -0.0862896  
C155     C      0.003670000000     0.029100000000     0.518910000000    -0.0864255  
C156     C      0.993760000000     0.989980000000     0.506990000000     0.0347925  
C157     C      0.984630000000     0.951110000000     0.519300000000    -0.0860224  
C158     C      0.985690000000     0.951990000000     0.542680000000     0.0722673  
C159     C      0.003090000000     0.029090000000     0.542220000000     0.072979   
C160     C      0.992930000000     0.990000000000     0.481970000000     0.0346327  
C161     C      0.981970000000     0.028840000000     0.470020000000    -0.0863031  
C162     C      0.982710000000     0.028860000000     0.446690000000     0.0726471  
C163     C      0.002380000000     0.952310000000     0.446310000000     0.0724115  
C164     C      0.003300000000     0.951440000000     0.469670000000    -0.0859486  
C165     C      0.792600000000     0.954490000000     0.373830000000    -0.0862199  
C166     C      0.768540000000     0.993450000000     0.368810000000     0.0347228  
C167     C      0.792870000000     0.032240000000     0.363790000000    -0.0863252  
C168     C      0.839470000000     0.031650000000     0.364250000000     0.072465   
C169     C      0.839210000000     0.954770000000     0.373450000000     0.0723242  
C170     C      0.718580000000     0.993650000000     0.368810000000     0.0347299  
C171     C      0.694250000000     0.954870000000     0.363800000000    -0.0863345  
C172     C      0.647650000000     0.955460000000     0.364250000000     0.0724194  
C173     C      0.647910000000     0.032340000000     0.373440000000     0.0723726  
C174     C      0.694520000000     0.032620000000     0.373820000000    -0.0861894  
C175     C      0.292570000000     0.032480000000     0.364450000000    -0.086283   
C176     C      0.268520000000     0.993640000000     0.369680000000     0.0347313  
C177     C      0.292810000000     0.954950000000     0.374900000000    -0.0863346  
C178     C      0.339410000000     0.955520000000     0.374470000000     0.0723525  
C179     C      0.339180000000     0.032170000000     0.364790000000     0.0723397  
C180     C      0.218600000000     0.993470000000     0.369680000000     0.0346915  
C181     C      0.194300000000     0.032170000000     0.374890000000    -0.0862693  
C182     C      0.147710000000     0.031600000000     0.374470000000     0.0723236  
C183     C      0.147940000000     0.954940000000     0.364790000000     0.0723187  
C184     C      0.194550000000     0.954630000000     0.364460000000    -0.0862673  
C185     C      0.454680000000     0.497100000000     0.768680000000    -0.0877194  
C186     C      0.493940000000     0.488750000000     0.756800000000     0.0348285  
C187     C      0.533070000000     0.479380000000     0.768590000000    -0.0877008  
C188     C      0.532520000000     0.479130000000     0.791940000000     0.0723077  
C189     C      0.455030000000     0.495480000000     0.792020000000     0.0723591  
C190     C      0.494060000000     0.489780000000     0.732160000000     0.0349575  
C191     C      0.485230000000     0.529450000000     0.720720000000    -0.0877204  
C192     C      0.485940000000     0.529940000000     0.697370000000     0.0723065  
C193     C      0.502300000000     0.452460000000     0.696610000000     0.0724041  
C194     C      0.502960000000     0.451070000000     0.719950000000    -0.0878764  
C195     C      0.532820000000     0.977310000000     0.768570000000    -0.0878023  
C196     C      0.493590000000     0.986120000000     0.756770000000     0.0348837  
C197     C      0.454290000000     0.994410000000     0.768610000000    -0.0878269  
C198     C      0.454710000000     0.993390000000     0.791950000000     0.0723206  
C199     C      0.532320000000     0.977620000000     0.791920000000     0.0723284  
C200     C      0.493740000000     0.987230000000     0.732140000000     0.0349668  
C201     C      0.486440000000     0.027320000000     0.720820000000    -0.0879534  
C202     C      0.487140000000     0.028020000000     0.697480000000     0.0724003  
C203     C      0.500550000000     0.949990000000     0.696480000000     0.0724162  
C204     C      0.501140000000     0.948320000000     0.719830000000    -0.0878351  
C205     C      0.532410000000     0.784820000000     0.874600000000    -0.0863264  
C206     C      0.493600000000     0.760600000000     0.869500000000     0.0347421  
C207     C      0.454770000000     0.784750000000     0.864350000000    -0.0863387  
C208     C      0.455200000000     0.831350000000     0.864680000000     0.0723833  
C209     C      0.531960000000     0.831420000000     0.874140000000     0.0724482  
C210     C      0.493620000000     0.710670000000     0.869540000000     0.0347643  
C211     C      0.532440000000     0.686500000000     0.864420000000    -0.0863616  
C212     C      0.532010000000     0.639900000000     0.864810000000     0.0724315  
C213     C      0.455250000000     0.639880000000     0.874260000000     0.0724213  
C214     C      0.454800000000     0.686480000000     0.874670000000    -0.0863391  
C215     C      0.532320000000     0.186440000000     0.863890000000    -0.0863627  
C216     C      0.493510000000     0.210670000000     0.868980000000     0.0347264  
C217     C      0.454660000000     0.186520000000     0.874100000000    -0.0863086  
C218     C      0.455080000000     0.139910000000     0.873740000000     0.072402   
C219     C      0.531850000000     0.139840000000     0.864330000000     0.0724115  
C220     C      0.493560000000     0.260610000000     0.868960000000     0.0347534  
C221     C      0.532390000000     0.284760000000     0.874080000000    -0.0863019  
C222     C      0.531990000000     0.331370000000     0.873690000000     0.0724137  
C223     C      0.455240000000     0.331430000000     0.864240000000     0.0723949  
C224     C      0.454760000000     0.284830000000     0.863830000000    -0.0863597  
C225     C      0.953910000000     0.507780000000     0.768590000000    -0.0877022  
C226     C      0.993050000000     0.498410000000     0.756800000000     0.034713   
C227     C      0.032300000000     0.490060000000     0.768680000000    -0.0875637  
C228     C      0.031960000000     0.491690000000     0.792020000000     0.0723679  
C229     C      0.954470000000     0.508040000000     0.791940000000     0.0723481  
C230     C      0.992930000000     0.497370000000     0.732160000000     0.034838   
C231     C      0.001760000000     0.457690000000     0.720730000000    -0.0876477  
C232     C      0.001050000000     0.457200000000     0.697380000000     0.0723955  
C233     C      0.984690000000     0.534680000000     0.696600000000     0.0723252  
C234     C      0.984030000000     0.536070000000     0.719940000000    -0.0877982  
C235     C      0.032690000000     0.992800000000     0.768610000000    -0.0878019  
C236     C      0.993390000000     0.001100000000     0.756770000000     0.0348892  
C237     C      0.954160000000     0.009900000000     0.768570000000    -0.0878317  
C238     C      0.954660000000     0.009590000000     0.791920000000     0.0723281  
C239     C      0.032270000000     0.993810000000     0.791950000000     0.0724488  
C240     C      0.993240000000     0.999980000000     0.732140000000     0.0346614  
C241     C      0.985830000000     0.038890000000     0.719830000000    -0.0876265  
C242     C      0.986430000000     0.037230000000     0.696480000000     0.0722457  
C243     C      0.999840000000     0.959200000000     0.697480000000     0.0720857  
C244     C      0.000540000000     0.959900000000     0.720810000000    -0.0875385  
C245     C      0.954670000000     0.800730000000     0.863880000000    -0.0862413  
C246     C      0.993480000000     0.776500000000     0.868970000000     0.034573   
C247     C      0.032320000000     0.800660000000     0.874090000000    -0.0861676  
C248     C      0.031900000000     0.847270000000     0.873730000000     0.0724867  
C249     C      0.955120000000     0.847330000000     0.864320000000     0.0722778  
C250     C      0.993420000000     0.726560000000     0.868950000000     0.0346659  
C251     C      0.954590000000     0.702410000000     0.874070000000    -0.0862926  
C252     C      0.954990000000     0.655800000000     0.873690000000     0.0723947  
C253     C      0.031740000000     0.655740000000     0.864240000000     0.07249    
C254     C      0.032220000000     0.702340000000     0.863830000000    -0.0862532  
C255     C      0.032180000000     0.300690000000     0.874670000000    -0.0861968  
C256     C      0.993360000000     0.276500000000     0.869540000000     0.0346535  
C257     C      0.954540000000     0.300670000000     0.864430000000    -0.0863557  
C258     C      0.954970000000     0.347270000000     0.864820000000     0.0724197  
C259     C      0.031730000000     0.347300000000     0.874260000000     0.0724971  
C260     C      0.993380000000     0.226570000000     0.869510000000     0.034638   
C261     C      0.032210000000     0.202420000000     0.864360000000    -0.0862263  
C262     C      0.031780000000     0.155820000000     0.864690000000     0.0724936  
C263     C      0.955020000000     0.155750000000     0.874150000000     0.0723958  
C264     C      0.954570000000     0.202350000000     0.874600000000    -0.0862984  
C265     C      0.454150000000     0.477190000000     0.220400000000    -0.0877088  
C266     C      0.493390000000     0.485990000000     0.232200000000     0.0348381  
C267     C      0.532680000000     0.494280000000     0.220350000000    -0.0878087  
C268     C      0.532240000000     0.493270000000     0.197010000000     0.0723652  
C269     C      0.454630000000     0.477500000000     0.197050000000     0.0722838  
C270     C      0.493250000000     0.487110000000     0.256830000000     0.0349541  
C271     C      0.500560000000     0.527190000000     0.268150000000    -0.0878765  
C272     C      0.499870000000     0.527900000000     0.291490000000     0.0723969  
C273     C      0.486460000000     0.449860000000     0.292490000000     0.0723773  
C274     C      0.485860000000     0.448200000000     0.269140000000    -0.0877554  
C275     C      0.532260000000     0.475260000000     0.019140000000    -0.0862715  
C276     C      0.493460000000     0.485420000000     0.007010000000     0.0348655  
C277     C      0.454630000000     0.495700000000     0.019100000000    -0.0862863  
C278     C      0.455050000000     0.495010000000     0.042450000000     0.0724558  
C279     C      0.531810000000     0.476160000000     0.042490000000     0.0724611  
C280     C      0.493490000000     0.485320000000     0.981990000000     0.0348186  
C281     C      0.532330000000     0.495500000000     0.969880000000    -0.0862679  
C282     C      0.531930000000     0.494640000000     0.946540000000     0.0725083  
C283     C      0.455170000000     0.475790000000     0.946520000000     0.0723989  
C284     C      0.454700000000     0.475060000000     0.969870000000    -0.0862387  
C285     C      0.453900000000     0.979300000000     0.220390000000    -0.0877962  
C286     C      0.493040000000     0.988680000000     0.232160000000     0.0349466  
C287     C      0.532290000000     0.997020000000     0.220280000000    -0.0877875  
C288     C      0.531930000000     0.995390000000     0.196940000000     0.0723541  
C289     C      0.454440000000     0.979050000000     0.197030000000     0.0723546  
C290     C      0.492940000000     0.989720000000     0.256800000000     0.0348459  
C291     C      0.501780000000     0.029400000000     0.268230000000    -0.0876767  
C292     C      0.501080000000     0.029900000000     0.291590000000     0.0722819  
C293     C      0.484720000000     0.952420000000     0.292370000000     0.0723618  
C294     C      0.484040000000     0.951020000000     0.269030000000    -0.0877608  
C295     C      0.532170000000     0.975010000000     0.019100000000    -0.0862976  
C296     C      0.493380000000     0.985290000000     0.006980000000     0.0348514  
C297     C      0.454540000000     0.995450000000     0.019090000000    -0.0863028  
C298     C      0.454940000000     0.994570000000     0.042430000000     0.0724603  
C299     C      0.531700000000     0.975720000000     0.042440000000     0.0725013  
C300     C      0.493410000000     0.985430000000     0.981960000000     0.034836   
C301     C      0.532240000000     0.995720000000     0.969870000000    -0.0862724  
C302     C      0.531820000000     0.995060000000     0.946520000000     0.0724801  
C303     C      0.455070000000     0.976210000000     0.946480000000     0.0725009  
C304     C      0.454610000000     0.975280000000     0.969820000000    -0.0863058  
C305     C      0.454510000000     0.784670000000     0.114900000000    -0.0862187  
C306     C      0.493350000000     0.760510000000     0.120010000000     0.0346983  
C307     C      0.532150000000     0.784730000000     0.125130000000    -0.0863115  
C308     C      0.531670000000     0.831340000000     0.124730000000     0.0723776  
C309     C      0.454910000000     0.831280000000     0.115280000000     0.0723536  
C310     C      0.493400000000     0.710570000000     0.120000000000     0.0347584  
C311     C      0.454600000000     0.686350000000     0.125090000000    -0.086321   
C312     C      0.455050000000     0.639750000000     0.124650000000     0.0723109  
C313     C      0.531820000000     0.639810000000     0.115230000000     0.0724302  
C314     C      0.532240000000     0.686420000000     0.114870000000    -0.086315   
C315     C      0.532100000000     0.186380000000     0.114290000000    -0.0862846  
C316     C      0.493290000000     0.210580000000     0.119420000000     0.0347106  
C317     C      0.454470000000     0.186400000000     0.124540000000    -0.0863053  
C318     C      0.454900000000     0.139800000000     0.124160000000     0.0723858  
C319     C      0.531660000000     0.139780000000     0.114700000000     0.072406   
C320     C      0.493310000000     0.260510000000     0.119460000000     0.03479    
C321     C      0.532140000000     0.284650000000     0.124600000000    -0.0863823  
C322     C      0.531710000000     0.331250000000     0.124270000000     0.0724136  
C323     C      0.454940000000     0.331320000000     0.114830000000     0.0724025  
C324     C      0.454500000000     0.284720000000     0.114370000000    -0.0862991  
C325     C      0.001270000000     0.538770000000     0.269140000000    -0.0875566  
C326     C      0.993870000000     0.499860000000     0.256830000000     0.0347866  
C327     C      0.986560000000     0.459780000000     0.268150000000    -0.0878403  
C328     C      0.987250000000     0.459080000000     0.291490000000     0.0723514  
C329     C      0.000670000000     0.537120000000     0.292490000000     0.0724259  
C330     C      0.993720000000     0.500980000000     0.232200000000     0.0348017  
C331     C      0.954430000000     0.492690000000     0.220360000000    -0.087821   
C332     C      0.954850000000     0.493700000000     0.197010000000     0.0723125  
C333     C      0.032460000000     0.509480000000     0.197040000000     0.0723994  
C334     C      0.032960000000     0.509780000000     0.220400000000    -0.0876744  
C335     C      0.954660000000     0.491630000000     0.969880000000    -0.0862379  
C336     C      0.993500000000     0.501790000000     0.981990000000     0.034721   
C337     C      0.032290000000     0.512070000000     0.969870000000    -0.0861409  
C338     C      0.031810000000     0.511360000000     0.946520000000     0.0725019  
C339     C      0.955050000000     0.492510000000     0.946540000000     0.0724584  
C340     C      0.993540000000     0.501660000000     0.007010000000     0.0347007  
C341     C      0.954740000000     0.511810000000     0.019150000000    -0.0862517  
C342     C      0.955200000000     0.510890000000     0.042490000000     0.0724268  
C343     C      0.031960000000     0.492030000000     0.042450000000     0.0725788  
C344     C      0.032380000000     0.491370000000     0.019100000000    -0.0861153  
C345     C      0.954810000000     0.989990000000     0.220290000000    -0.0877793  
C346     C      0.994060000000     0.998340000000     0.232160000000     0.0348226  
C347     C      0.033200000000     0.007710000000     0.220380000000    -0.0876563  
C348     C      0.032650000000     0.007960000000     0.197030000000     0.0723928  
C349     C      0.955160000000     0.991620000000     0.196950000000     0.0723272  
C350     C      0.994170000000     0.997320000000     0.256800000000     0.0347321  
C351     C      0.003080000000     0.036020000000     0.269020000000    -0.0875962  
C352     C      0.002400000000     0.034640000000     0.292360000000     0.0724442  
C353     C      0.986040000000     0.957160000000     0.291590000000     0.0722302  
C354     C      0.985340000000     0.957650000000     0.268240000000    -0.0876558  
C355     C      0.032390000000     0.011820000000     0.969820000000    -0.0861386  
C356     C      0.993580000000     0.001660000000     0.981960000000     0.0347152  
C357     C      0.954750000000     0.991380000000     0.969870000000    -0.0862336  
C358     C      0.955160000000     0.992060000000     0.946520000000     0.0723689  
C359     C      0.031920000000     0.010920000000     0.946470000000     0.0725934  
C360     C      0.993630000000     0.001770000000     0.006970000000     0.034695   
C361     C      0.032470000000     0.991600000000     0.019080000000    -0.0861698  
C362     C      0.032070000000     0.992460000000     0.042430000000     0.0725723  
C363     C      0.955310000000     0.011310000000     0.042450000000     0.072398   
C364     C      0.954830000000     0.012030000000     0.019100000000    -0.0861995  
C365     C      0.032580000000     0.800600000000     0.124540000000    -0.0861801  
C366     C      0.993760000000     0.776420000000     0.119430000000     0.0345925  
C367     C      0.954950000000     0.800610000000     0.114300000000    -0.0862247  
C368     C      0.955390000000     0.847220000000     0.114700000000     0.0723361  
C369     C      0.032150000000     0.847200000000     0.124150000000     0.072484   
C370     C      0.993740000000     0.726490000000     0.119460000000     0.0347082  
C371     C      0.032550000000     0.702280000000     0.114370000000    -0.0862722  
C372     C      0.032100000000     0.655680000000     0.114830000000     0.0725419  
C373     C      0.955350000000     0.655750000000     0.124280000000     0.0724282  
C374     C      0.954920000000     0.702350000000     0.124620000000    -0.0863665  
C375     C      0.954810000000     0.300580000000     0.114870000000    -0.0862459  
C376     C      0.993650000000     0.276430000000     0.119990000000     0.0346533  
C377     C      0.032460000000     0.300650000000     0.125070000000    -0.086283   
C378     C      0.032000000000     0.347250000000     0.124630000000     0.0725126  
C379     C      0.955220000000     0.347190000000     0.115220000000     0.0722803  
C380     C      0.993700000000     0.226490000000     0.120010000000     0.034603   
C381     C      0.954910000000     0.202270000000     0.125130000000    -0.0862543  
C382     C      0.955380000000     0.155660000000     0.124730000000     0.0723068  
C383     C      0.032130000000     0.155720000000     0.115270000000     0.072503   
C384     C      0.032540000000     0.202330000000     0.114890000000    -0.0861835  
H1       H      0.776140000000     0.562820000000     0.609380000000     0.0508231  
H2       H      0.856610000000     0.562320000000     0.610370000000     0.0263494  
H3       H      0.856190000000     0.424130000000     0.628350000000     0.0263211  
H4       H      0.775700000000     0.424060000000     0.629200000000     0.0507522  
H5       H      0.710870000000     0.424280000000     0.609390000000     0.0508138  
H6       H      0.630400000000     0.424780000000     0.610380000000     0.0263455  
H7       H      0.630820000000     0.562980000000     0.628350000000     0.0263368  
H8       H      0.711310000000     0.563050000000     0.629200000000     0.0507253  
H9       H      0.211230000000     0.423820000000     0.610580000000     0.0507335  
H10      H      0.130780000000     0.423870000000     0.611530000000     0.0262646  
H11      H      0.130330000000     0.562460000000     0.628660000000     0.0262786  
H12      H      0.210740000000     0.563010000000     0.629720000000     0.0506894  
H13      H      0.275780000000     0.563280000000     0.610580000000     0.0507722  
H14      H      0.356230000000     0.563240000000     0.611520000000     0.0262411  
H15      H      0.356680000000     0.424650000000     0.628660000000     0.0262631  
H16      H      0.276280000000     0.424100000000     0.629730000000     0.0507032  
H17      H      0.775840000000     0.063160000000     0.609600000000     0.0508023  
H18      H      0.856310000000     0.063050000000     0.610660000000     0.0262147  
H19      H      0.856490000000     0.924660000000     0.628230000000     0.0262703  
H20      H      0.776060000000     0.924200000000     0.629100000000     0.0507634  
H21      H      0.711150000000     0.924040000000     0.609610000000     0.0507847  
H22      H      0.630680000000     0.924150000000     0.610670000000     0.0262324  
H23      H      0.630500000000     0.062550000000     0.628230000000     0.0262717  
H24      H      0.710930000000     0.063010000000     0.629100000000     0.0507367  
H25      H      0.210710000000     0.923900000000     0.629300000000     0.0506493  
H26      H      0.130340000000     0.924360000000     0.628150000000     0.0259739  
H27      H      0.130650000000     0.063330000000     0.611840000000     0.0259824  
H28      H      0.211040000000     0.063480000000     0.610810000000     0.0507233  
H29      H      0.276280000000     0.063320000000     0.629290000000     0.050648   
H30      H      0.356650000000     0.062850000000     0.628150000000     0.0259594  
H31      H      0.356340000000     0.923880000000     0.611840000000     0.0259815  
H32      H      0.275950000000     0.923730000000     0.610810000000     0.0507218  
H33      H      0.512900000000     0.566380000000     0.511070000000     0.0507443  
H34      H      0.510740000000     0.565350000000     0.551430000000     0.0262894  
H35      H      0.474180000000     0.427360000000     0.550700000000     0.0263312  
H36      H      0.472360000000     0.427870000000     0.510460000000     0.0508779  
H37      H      0.512430000000     0.427340000000     0.478550000000     0.0508261  
H38      H      0.510850000000     0.426880000000     0.438350000000     0.026268   
H39      H      0.478340000000     0.565870000000     0.437470000000     0.0261441  
H40      H      0.475970000000     0.566980000000     0.477870000000     0.0507625  
H41      H      0.474660000000     0.927420000000     0.510420000000     0.0508745  
H42      H      0.476230000000     0.926960000000     0.550620000000     0.0262435  
H43      H      0.508740000000     0.065950000000     0.551490000000     0.0261355  
H44      H      0.511120000000     0.067050000000     0.511090000000     0.0507701  
H45      H      0.474200000000     0.066440000000     0.477890000000     0.0507632  
H46      H      0.476350000000     0.065390000000     0.437520000000     0.0263008  
H47      H      0.512910000000     0.927410000000     0.438270000000     0.026304   
H48      H      0.514730000000     0.927930000000     0.478510000000     0.0508863  
H49      H      0.974160000000     0.420690000000     0.511080000000     0.0507748  
H50      H      0.976290000000     0.421730000000     0.551440000000     0.0262866  
H51      H      0.012860000000     0.559720000000     0.550700000000     0.0263407  
H52      H      0.014700000000     0.559190000000     0.510460000000     0.0508954  
H53      H      0.974660000000     0.559710000000     0.478540000000     0.0508018  
H54      H      0.976250000000     0.560160000000     0.438340000000     0.0262311  
H55      H      0.008760000000     0.421160000000     0.437480000000     0.0261767  
H56      H      0.011110000000     0.420070000000     0.477880000000     0.0507535  
H57      H      0.776350000000     0.423790000000     0.359660000000     0.0506358  
H58      H      0.856720000000     0.424260000000     0.360810000000     0.025951   
H59      H      0.856400000000     0.563230000000     0.377110000000     0.0259659  
H60      H      0.776020000000     0.563380000000     0.378140000000     0.0507153  
H61      H      0.711110000000     0.423630000000     0.378140000000     0.0507235  
H62      H      0.630720000000     0.423780000000     0.377120000000     0.0259711  
H63      H      0.630400000000     0.562750000000     0.360800000000     0.025975   
H64      H      0.710770000000     0.563210000000     0.359650000000     0.0506284  
H65      H      0.276130000000     0.562910000000     0.359870000000     0.0507417  
H66      H      0.356560000000     0.562440000000     0.360740000000     0.0262981  
H67      H      0.356380000000     0.424050000000     0.378320000000     0.0262305  
H68      H      0.275910000000     0.423940000000     0.379380000000     0.0507798  
H69      H      0.211000000000     0.424090000000     0.359880000000     0.0507519  
H70      H      0.130560000000     0.424560000000     0.360750000000     0.0262883  
H71      H      0.130740000000     0.562950000000     0.378310000000     0.0262551  
H72      H      0.211220000000     0.563060000000     0.379370000000     0.0508113  
H73      H      0.975920000000     0.920140000000     0.511090000000     0.0507362  
H74      H      0.978270000000     0.921250000000     0.551490000000     0.0261197  
H75      H      0.010780000000     0.060240000000     0.550610000000     0.0262395  
H76      H      0.012380000000     0.059780000000     0.510420000000     0.050859   
H77      H      0.972340000000     0.059250000000     0.478500000000     0.0508162  
H78      H      0.974190000000     0.059750000000     0.438260000000     0.0262983  
H79      H      0.010750000000     0.921760000000     0.437540000000     0.0263131  
H80      H      0.012880000000     0.920740000000     0.477900000000     0.0507876  
H81      H      0.776330000000     0.063010000000     0.359220000000     0.0506947  
H82      H      0.856740000000     0.062460000000     0.360290000000     0.0262619  
H83      H      0.856290000000     0.923870000000     0.377440000000     0.0262625  
H84      H      0.775830000000     0.923830000000     0.378380000000     0.0507508  
H85      H      0.710790000000     0.924100000000     0.359230000000     0.0506957  
H86      H      0.630380000000     0.924650000000     0.360300000000     0.0262752  
H87      H      0.630830000000     0.063250000000     0.377430000000     0.0262638  
H88      H      0.711290000000     0.063290000000     0.378370000000     0.0507294  
H89      H      0.276200000000     0.924290000000     0.379600000000     0.0508384  
H90      H      0.356670000000     0.924800000000     0.378600000000     0.0263604  
H91      H      0.356240000000     0.062980000000     0.360620000000     0.0263148  
H92      H      0.275750000000     0.063050000000     0.359770000000     0.0507339  
H93      H      0.210920000000     0.062830000000     0.379590000000     0.0508185  
H94      H      0.130450000000     0.062320000000     0.378590000000     0.0263869  
H95      H      0.130880000000     0.924130000000     0.360630000000     0.0263312  
H96      H      0.211370000000     0.924060000000     0.359780000000     0.0507303  
H97      H      0.564010000000     0.472830000000     0.759800000000     0.0529285  
H98      H      0.563610000000     0.472020000000     0.800500000000     0.0265077  
H99      H      0.423860000000     0.501930000000     0.800630000000     0.0264975  
H100     H      0.423830000000     0.504340000000     0.759950000000     0.0529625  
H101     H      0.478300000000     0.559990000000     0.729790000000     0.0529631  
H102     H      0.479150000000     0.561400000000     0.689090000000     0.0265016  
H103     H      0.509090000000     0.421670000000     0.687710000000     0.0265045  
H104     H      0.509850000000     0.419830000000     0.728390000000     0.052982   
H105     H      0.423380000000     0.001310000000     0.759860000000     0.0530655  
H106     H      0.423520000000     0.999850000000     0.800550000000     0.0265475  
H107     H      0.563500000000     0.970970000000     0.800500000000     0.0265182  
H108     H      0.563790000000     0.970870000000     0.759790000000     0.0530565  
H109     H      0.480690000000     0.058000000000     0.729960000000     0.053101   
H110     H      0.481550000000     0.059830000000     0.689300000000     0.0264336  
H111     H      0.506160000000     0.919070000000     0.687490000000     0.0264645  
H112     H      0.506840000000     0.916770000000     0.728200000000     0.0530887  
H113     H      0.424120000000     0.768030000000     0.859740000000     0.050731   
H114     H      0.424390000000     0.848490000000     0.860600000000     0.0262941  
H115     H      0.562770000000     0.848620000000     0.878180000000     0.026287   
H116     H      0.563070000000     0.768160000000     0.879250000000     0.0508042  
H117     H      0.563100000000     0.703190000000     0.859790000000     0.0507294  
H118     H      0.562820000000     0.622740000000     0.860740000000     0.0262899  
H119     H      0.424440000000     0.622690000000     0.878310000000     0.0262937  
H120     H      0.424140000000     0.703170000000     0.879290000000     0.050809   
H121     H      0.424000000000     0.203240000000     0.878690000000     0.0508046  
H122     H      0.424260000000     0.122760000000     0.877810000000     0.026295   
H123     H      0.562670000000     0.122650000000     0.860300000000     0.0262794  
H124     H      0.562990000000     0.203100000000     0.859260000000     0.0507253  
H125     H      0.563040000000     0.268050000000     0.878710000000     0.0507892  
H126     H      0.562810000000     0.348520000000     0.877760000000     0.0263112  
H127     H      0.424440000000     0.348630000000     0.860180000000     0.0262828  
H128     H      0.424090000000     0.268170000000     0.859200000000     0.050727   
H129     H      0.063160000000     0.482810000000     0.759960000000     0.0529426  
H130     H      0.063130000000     0.485240000000     0.800640000000     0.0265238  
H131     H      0.923370000000     0.515140000000     0.800490000000     0.0264939  
H132     H      0.922980000000     0.514330000000     0.759790000000     0.0529226  
H133     H      0.008680000000     0.427160000000     0.729800000000     0.0530032  
H134     H      0.007840000000     0.425730000000     0.689100000000     0.0265295  
H135     H      0.977900000000     0.565470000000     0.687700000000     0.0265102  
H136     H      0.977140000000     0.567320000000     0.728380000000     0.0529263  
H137     H      0.923190000000     0.016340000000     0.759790000000     0.0530659  
H138     H      0.923480000000     0.016230000000     0.800500000000     0.0265072  
H139     H      0.063460000000     0.987350000000     0.800540000000     0.0265122  
H140     H      0.063590000000     0.985910000000     0.759860000000     0.0530905  
H141     H      0.980140000000     0.070450000000     0.728200000000     0.0530048  
H142     H      0.980820000000     0.068150000000     0.687480000000     0.0265082  
H143     H      0.005430000000     0.927390000000     0.689300000000     0.0266035  
H144     H      0.006290000000     0.929220000000     0.729960000000     0.0530174  
H145     H      0.062980000000     0.783940000000     0.878680000000     0.0507876  
H146     H      0.062720000000     0.864410000000     0.877800000000     0.0262753  
H147     H      0.924310000000     0.864520000000     0.860290000000     0.026301   
H148     H      0.923990000000     0.784070000000     0.859250000000     0.0506717  
H149     H      0.923940000000     0.719120000000     0.878700000000     0.050781   
H150     H      0.924170000000     0.638660000000     0.877760000000     0.0262995  
H151     H      0.062540000000     0.638540000000     0.860180000000     0.0262777  
H152     H      0.062890000000     0.719000000000     0.859200000000     0.05072    
H153     H      0.923880000000     0.283980000000     0.859800000000     0.0507214  
H154     H      0.924160000000     0.364430000000     0.860740000000     0.0262888  
H155     H      0.062540000000     0.364480000000     0.878310000000     0.0262796  
H156     H      0.062840000000     0.284010000000     0.879300000000     0.0507928  
H157     H      0.062860000000     0.219140000000     0.859750000000     0.0507264  
H158     H      0.062590000000     0.138680000000     0.860610000000     0.0262828  
H159     H      0.924220000000     0.138550000000     0.878180000000     0.0263002  
H160     H      0.923910000000     0.219010000000     0.879250000000     0.0507916  
H161     H      0.563590000000     0.501180000000     0.229100000000     0.0530493  
H162     H      0.563430000000     0.499730000000     0.188410000000     0.0265269  
H163     H      0.423450000000     0.470850000000     0.188470000000     0.0265362  
H164     H      0.423180000000     0.470750000000     0.229190000000     0.0530212  
H165     H      0.506310000000     0.557880000000     0.259000000000     0.0530465  
H166     H      0.505470000000     0.559710000000     0.299660000000     0.0264125  
H167     H      0.480860000000     0.418950000000     0.301490000000     0.0264865  
H168     H      0.480150000000     0.416640000000     0.260770000000     0.0530503  
H169     H      0.423970000000     0.504890000000     0.010730000000     0.0508355  
H170     H      0.424230000000     0.503150000000     0.051040000000     0.0263186  
H171     H      0.562610000000     0.468080000000     0.051100000000     0.0263459  
H172     H      0.562930000000     0.465980000000     0.010800000000     0.0508231  
H173     H      0.562980000000     0.504760000000     0.978250000000     0.0508117  
H174     H      0.562760000000     0.502730000000     0.937940000000     0.0263456  
H175     H      0.424370000000     0.467680000000     0.937910000000     0.026336   
H176     H      0.424020000000     0.465860000000     0.978220000000     0.0508242  
H177     H      0.563150000000     0.004270000000     0.229000000000     0.0529864  
H178     H      0.563090000000     0.001840000000     0.188320000000     0.0265164  
H179     H      0.423330000000     0.971940000000     0.188490000000     0.0264861  
H180     H      0.422970000000     0.972760000000     0.229180000000     0.0529748  
H181     H      0.508690000000     0.059930000000     0.259160000000     0.0529769  
H182     H      0.507880000000     0.061370000000     0.299860000000     0.0265066  
H183     H      0.477930000000     0.921630000000     0.301270000000     0.0265164  
H184     H      0.477150000000     0.919770000000     0.260590000000     0.0529391  
H185     H      0.423890000000     0.004720000000     0.010730000000     0.050841   
H186     H      0.424120000000     0.002650000000     0.051030000000     0.0263522  
H187     H      0.562500000000     0.967590000000     0.051050000000     0.0263121  
H188     H      0.562850000000     0.965820000000     0.010740000000     0.0508224  
H189     H      0.562900000000     0.004900000000     0.978250000000     0.050827   
H190     H      0.562640000000     0.003210000000     0.937930000000     0.0263253  
H191     H      0.424260000000     0.968150000000     0.937860000000     0.0263352  
H192     H      0.423940000000     0.966000000000     0.978160000000     0.0508306  
H193     H      0.562820000000     0.768070000000     0.129760000000     0.0507139  
H194     H      0.562470000000     0.848530000000     0.128780000000     0.0262826  
H195     H      0.424090000000     0.848420000000     0.111220000000     0.0263193  
H196     H      0.423860000000     0.767950000000     0.110270000000     0.0507617  
H197     H      0.423920000000     0.703000000000     0.129720000000     0.050709   
H198     H      0.424250000000     0.622550000000     0.128680000000     0.0263041  
H199     H      0.562640000000     0.622660000000     0.111160000000     0.0262826  
H200     H      0.562900000000     0.703140000000     0.110270000000     0.0507948  
H201     H      0.423820000000     0.203100000000     0.129180000000     0.0507161  
H202     H      0.424090000000     0.122650000000     0.128230000000     0.0262953  
H203     H      0.562460000000     0.122600000000     0.110640000000     0.0262861  
H204     H      0.562760000000     0.203070000000     0.109660000000     0.0507846  
H205     H      0.562790000000     0.267930000000     0.129210000000     0.0507424  
H206     H      0.562520000000     0.348390000000     0.128350000000     0.0262789  
H207     H      0.424140000000     0.348530000000     0.110790000000     0.026307   
H208     H      0.423830000000     0.268060000000     0.109720000000     0.0507844  
H209     H      0.980810000000     0.429090000000     0.259000000000     0.0530198  
H210     H      0.981660000000     0.427270000000     0.299660000000     0.0264076  
H211     H      0.006270000000     0.568030000000     0.301480000000     0.0265083  
H212     H      0.006970000000     0.570330000000     0.260760000000     0.0530266  
H213     H      0.923520000000     0.485790000000     0.229100000000     0.0530605  
H214     H      0.923650000000     0.487240000000     0.188420000000     0.0265322  
H215     H      0.063640000000     0.516120000000     0.188470000000     0.0264946  
H216     H      0.063920000000     0.516220000000     0.229180000000     0.0530693  
H217     H      0.062970000000     0.521260000000     0.978220000000     0.0508241  
H218     H      0.062610000000     0.519480000000     0.937910000000     0.0263242  
H219     H      0.924230000000     0.484420000000     0.937940000000     0.0263476  
H220     H      0.924010000000     0.482360000000     0.978250000000     0.0507928  
H221     H      0.924070000000     0.521090000000     0.010810000000     0.0508129  
H222     H      0.924400000000     0.518950000000     0.051110000000     0.026346   
H223     H      0.062780000000     0.483890000000     0.051030000000     0.0263009  
H224     H      0.063030000000     0.482190000000     0.010710000000     0.0508034  
H225     H      0.064130000000     0.014260000000     0.229170000000     0.0529659  
H226     H      0.063750000000     0.015070000000     0.188470000000     0.0265164  
H227     H      0.923990000000     0.985160000000     0.188330000000     0.0265102  
H228     H      0.923950000000     0.982750000000     0.229010000000     0.0529697  
H229     H      0.009960000000     0.067270000000     0.260570000000     0.052925   
H230     H      0.009190000000     0.065430000000     0.301250000000     0.0265389  
H231     H      0.979250000000     0.925700000000     0.299870000000     0.026517   
H232     H      0.978420000000     0.927110000000     0.259170000000     0.0529339  
H233     H      0.924100000000     0.982190000000     0.978250000000     0.0508095  
H234     H      0.924340000000     0.983930000000     0.937930000000     0.0263323  
H235     H      0.062720000000     0.018990000000     0.937860000000     0.0263245  
H236     H      0.063060000000     0.021090000000     0.978160000000     0.0508232  
H237     H      0.063110000000     0.982330000000     0.010720000000     0.0508318  
H238     H      0.062900000000     0.984370000000     0.051020000000     0.0263213  
H239     H      0.924520000000     0.019420000000     0.051060000000     0.026329   
H240     H      0.924160000000     0.021230000000     0.010740000000     0.0508108  
H241     H      0.924280000000     0.783930000000     0.109670000000     0.0507543  
H242     H      0.924580000000     0.864400000000     0.110650000000     0.0262953  
H243     H      0.062960000000     0.864350000000     0.128220000000     0.0262887  
H244     H      0.063240000000     0.783900000000     0.129170000000     0.0506978  
H245     H      0.063210000000     0.718930000000     0.109720000000     0.0508198  
H246     H      0.062910000000     0.638470000000     0.110790000000     0.0262983  
H247     H      0.924530000000     0.638600000000     0.128370000000     0.0262824  
H248     H      0.924260000000     0.719070000000     0.129230000000     0.0507185  
H249     H      0.063130000000     0.284000000000     0.129700000000     0.0507356  
H250     H      0.062810000000     0.364440000000     0.128670000000     0.026274   
H251     H      0.924400000000     0.364340000000     0.111160000000     0.0263093  
H252     H      0.924150000000     0.283860000000     0.110270000000     0.0507711  
H253     H      0.924230000000     0.218930000000     0.129760000000     0.0506772  
H254     H      0.924580000000     0.138470000000     0.128780000000     0.0262961  
H255     H      0.062950000000     0.138580000000     0.111200000000     0.0262984  
H256     H      0.063180000000     0.219040000000     0.110260000000     0.0507975  
N1       N      0.862390000000     0.493210000000     0.619380000000    -0.197714   
N2       N      0.624620000000     0.493890000000     0.619380000000    -0.197787   
N3       N      0.124590000000     0.493150000000     0.620070000000    -0.19783    
N4       N      0.362420000000     0.493960000000     0.620070000000    -0.197852   
N5       N      0.862380000000     0.993880000000     0.619450000000    -0.197964   
N6       N      0.624620000000     0.993330000000     0.619460000000    -0.197896   
N7       N      0.124560000000     0.993860000000     0.619980000000    -0.198043   
N8       N      0.362430000000     0.993360000000     0.619980000000    -0.198003   
N9       N      0.492660000000     0.496250000000     0.554060000000    -0.197801   
N10      N      0.494360000000     0.496280000000     0.434920000000    -0.197834   
N11      N      0.492720000000     0.996360000000     0.554050000000    -0.198      
N12      N      0.494430000000     0.996280000000     0.434910000000    -0.197862   
N13      N      0.994370000000     0.490840000000     0.554060000000    -0.197905   
N14      N      0.992750000000     0.490760000000     0.434920000000    -0.197937   
N15      N      0.862500000000     0.493750000000     0.368970000000    -0.198054   
N16      N      0.624620000000     0.493250000000     0.368980000000    -0.198031   
N17      N      0.362440000000     0.493230000000     0.369520000000    -0.197875   
N18      N      0.124680000000     0.493770000000     0.369520000000    -0.19797    
N19      N      0.994290000000     0.990840000000     0.554040000000    -0.19795    
N20      N      0.992680000000     0.990870000000     0.434910000000    -0.19788    
N21      N      0.862480000000     0.993150000000     0.368880000000    -0.197865   
N22      N      0.624640000000     0.993960000000     0.368890000000    -0.197834   
N23      N      0.362440000000     0.993900000000     0.369590000000    -0.197737   
N24      N      0.124670000000     0.993210000000     0.369590000000    -0.197785   
N25      N      0.493730000000     0.486890000000     0.803570000000    -0.197703   
N26      N      0.494100000000     0.491650000000     0.685400000000    -0.1977     
N27      N      0.493520000000     0.985440000000     0.803540000000    -0.197746   
N28      N      0.493860000000     0.989590000000     0.685380000000    -0.197846   
N29      N      0.493580000000     0.854530000000     0.869380000000    -0.197893   
N30      N      0.493630000000     0.616750000000     0.869520000000    -0.197859   
N31      N      0.493460000000     0.116730000000     0.869070000000    -0.197808   
N32      N      0.493630000000     0.354550000000     0.868980000000    -0.19786    
N33      N      0.993250000000     0.500280000000     0.803570000000    -0.197747   
N34      N      0.992900000000     0.495480000000     0.685390000000    -0.19784    
N35      N      0.993460000000     0.001760000000     0.803540000000    -0.197883   
N36      N      0.993120000000     0.997620000000     0.685380000000    -0.197737   
N37      N      0.993520000000     0.870450000000     0.869060000000    -0.197893   
N38      N      0.993350000000     0.632630000000     0.868980000000    -0.197855   
N39      N      0.993350000000     0.370420000000     0.869520000000    -0.197905   
N40      N      0.993400000000     0.132650000000     0.869380000000    -0.197885   
N41      N      0.493430000000     0.485320000000     0.185430000000    -0.197742   
N42      N      0.493160000000     0.489470000000     0.303580000000    -0.197821   
N43      N      0.493420000000     0.485630000000     0.054070000000    -0.197878   
N44      N      0.493570000000     0.485210000000     0.934930000000    -0.197825   
N45      N      0.493220000000     0.986800000000     0.185390000000    -0.197819   
N46      N      0.492930000000     0.991620000000     0.303570000000    -0.197695   
N47      N      0.493310000000     0.985120000000     0.054030000000    -0.197742   
N48      N      0.493460000000     0.985690000000     0.934900000000    -0.197893   
N49      N      0.493280000000     0.854450000000     0.119990000000    -0.19781    
N50      N      0.493450000000     0.616630000000     0.119910000000    -0.197828   
N51      N      0.493280000000     0.116650000000     0.119440000000    -0.197835   
N52      N      0.493330000000     0.354430000000     0.119580000000    -0.197876   
N53      N      0.993970000000     0.497510000000     0.303580000000    -0.197831   
N54      N      0.993660000000     0.501650000000     0.185430000000    -0.197793   
N55      N      0.993410000000     0.501950000000     0.934930000000    -0.197895   
N56      N      0.993600000000     0.501410000000     0.054060000000    -0.19781    
N57      N      0.993860000000     0.000200000000     0.185390000000    -0.197826   
N58      N      0.994190000000     0.995450000000     0.303570000000    -0.197737   
N59      N      0.993530000000     0.001450000000     0.934900000000    -0.197903   
N60      N      0.993710000000     0.001890000000     0.054030000000    -0.197814   
N61      N      0.993770000000     0.870350000000     0.119440000000    -0.197887   
N62      N      0.993720000000     0.632570000000     0.119590000000    -0.197943   
N63      N      0.993610000000     0.370370000000     0.119900000000    -0.197865   
N64      N      0.993770000000     0.132550000000     0.119980000000    -0.197843   
Ni1      Ni     0.954110000000     0.001460000000     0.119720000000     1.00207    
Ni2      Ni     0.033420000000     0.001420000000     0.119700000000     1.0028     
Ni3      Ni     0.954000000000     0.501510000000     0.119750000000     1.00264    
Ni4      Ni     0.033310000000     0.501440000000     0.119740000000     1.00212    
Ni5      Ni     0.453620000000     0.985570000000     0.119710000000     1.00238    
Ni6      Ni     0.532940000000     0.985540000000     0.119710000000     1.00229    
Ni7      Ni     0.453740000000     0.485560000000     0.119740000000     1.00216    
Ni8      Ni     0.533050000000     0.485490000000     0.119740000000     1.00282    
Ni9      Ni     0.033120000000     0.001590000000     0.869220000000     1.0029     
Ni10     Ni     0.953810000000     0.001520000000     0.869230000000     1.00192    
Ni11     Ni     0.953700000000     0.501500000000     0.869260000000     1.00222    
Ni12     Ni     0.033010000000     0.501530000000     0.869250000000     1.00234    
Ni13     Ni     0.453850000000     0.985580000000     0.869220000000     1.00261    
Ni14     Ni     0.533170000000     0.985660000000     0.869230000000     1.00234    
Ni15     Ni     0.533280000000     0.485670000000     0.869260000000     1.0026     
Ni16     Ni     0.453970000000     0.485640000000     0.869250000000     1.00221    
Ni17     Ni     0.993600000000     0.953410000000     0.368910000000     0.999839   
Ni18     Ni     0.993530000000     0.032710000000     0.369580000000     1.00406    
Ni19     Ni     0.993550000000     0.533540000000     0.369870000000     1.00472    
Ni20     Ni     0.993610000000     0.454190000000     0.368640000000     1.00173    
Ni21     Ni     0.493590000000     0.954400000000     0.369590000000     1.00422    
Ni22     Ni     0.493520000000     0.033710000000     0.368900000000     1.0003     
Ni23     Ni     0.493580000000     0.453460000000     0.369870000000     1.00487    
Ni24     Ni     0.493510000000     0.532810000000     0.368640000000     1.0018     
Ni25     Ni     0.993510000000     0.033650000000     0.619090000000     1.00484    
Ni26     Ni     0.993440000000     0.954290000000     0.620330000000     1.00172    
Ni27     Ni     0.993540000000     0.532710000000     0.619380000000     1.00412    
Ni28     Ni     0.993470000000     0.453400000000     0.620060000000     1.00031    
Ni29     Ni     0.493480000000     0.953570000000     0.619100000000     1.005      
Ni30     Ni     0.493550000000     0.032920000000     0.620330000000     1.0018     
Ni31     Ni     0.493550000000     0.533700000000     0.620060000000     1.00033    
Ni32     Ni     0.493480000000     0.454400000000     0.619390000000     1.00431    
O1       O      0.956780000000     0.998760000000     0.151710000000    -0.449708   
O2       O      0.956720000000     0.004140000000     0.087720000000    -0.449676   
O3       O      0.956740000000     0.937580000000     0.118370000000    -0.449642   
O4       O      0.956750000000     0.065320000000     0.121070000000    -0.449744   
O5       O      0.030790000000     0.065330000000     0.118690000000    -0.449739   
O6       O      0.030790000000     0.937550000000     0.120720000000    -0.449921   
O7       O      0.030760000000     0.999390000000     0.087700000000    -0.449826   
O8       O      0.030830000000     0.003360000000     0.151710000000    -0.449609   
O9       O      0.956640000000     0.499360000000     0.151750000000    -0.449907   
O10      O      0.956610000000     0.503740000000     0.087750000000    -0.449811   
O11      O      0.956600000000     0.437610000000     0.118640000000    -0.449752   
O12      O      0.956670000000     0.565380000000     0.120850000000    -0.449945   
O13      O      0.030710000000     0.565320000000     0.118490000000    -0.449678   
O14      O      0.030650000000     0.437570000000     0.120980000000    -0.449643   
O15      O      0.030650000000     0.498980000000     0.087730000000    -0.449432   
O16      O      0.030690000000     0.503870000000     0.151740000000    -0.449689   
O17      O      0.456260000000     0.049450000000     0.120730000000    -0.44988    
O18      O      0.456250000000     0.921670000000     0.118690000000    -0.449644   
O19      O      0.456240000000     0.983640000000     0.151720000000    -0.449783   
O20      O      0.456270000000     0.987610000000     0.087700000000    -0.449675   
O21      O      0.530320000000     0.982850000000     0.087720000000    -0.449745   
O22      O      0.530290000000     0.988240000000     0.151710000000    -0.44963    
O23      O      0.530300000000     0.921680000000     0.121070000000    -0.449753   
O24      O      0.530310000000     0.049420000000     0.118360000000    -0.449651   
O25      O      0.456340000000     0.421680000000     0.118500000000    -0.449836   
O26      O      0.456400000000     0.549420000000     0.120990000000    -0.449778   
O27      O      0.456380000000     0.488030000000     0.087740000000    -0.449712   
O28      O      0.456370000000     0.483120000000     0.151750000000    -0.449541   
O29      O      0.530420000000     0.487630000000     0.151740000000    -0.450001   
O30      O      0.530420000000     0.483270000000     0.087740000000    -0.449994   
O31      O      0.530450000000     0.549390000000     0.118640000000    -0.449764   
O32      O      0.530380000000     0.421620000000     0.120840000000    -0.449999   
O33      O      0.030520000000     0.937690000000     0.870320000000    -0.449728   
O34      O      0.030460000000     0.065460000000     0.868120000000    -0.449774   
O35      O      0.030510000000     0.003800000000     0.901220000000    -0.449768   
O36      O      0.030480000000     0.999450000000     0.837220000000    -0.449767   
O37      O      0.956430000000     0.003960000000     0.837220000000    -0.449584   
O38      O      0.956470000000     0.999040000000     0.901230000000    -0.449617   
O39      O      0.956410000000     0.065400000000     0.870480000000    -0.449716   
O40      O      0.956480000000     0.937650000000     0.867980000000    -0.44982    
O41      O      0.956330000000     0.565400000000     0.870280000000    -0.449696   
O42      O      0.956330000000     0.437620000000     0.868240000000    -0.449837   
O43      O      0.956360000000     0.499460000000     0.901270000000    -0.449644   
O44      O      0.956290000000     0.503440000000     0.837250000000    -0.449739   
O45      O      0.030340000000     0.498840000000     0.837250000000    -0.449621   
O46      O      0.030400000000     0.504220000000     0.901240000000    -0.449655   
O47      O      0.030380000000     0.437660000000     0.870600000000    -0.449585   
O48      O      0.030370000000     0.565400000000     0.867900000000    -0.449656   
O49      O      0.456500000000     0.987740000000     0.837220000000    -0.449957   
O50      O      0.456470000000     0.983360000000     0.901220000000    -0.449877   
O51      O      0.456450000000     0.049490000000     0.870330000000    -0.44964    
O52      O      0.456520000000     0.921710000000     0.868110000000    -0.449843   
O53      O      0.530570000000     0.921780000000     0.870470000000    -0.449768   
O54      O      0.530500000000     0.049520000000     0.867990000000    -0.449936   
O55      O      0.530510000000     0.988120000000     0.901230000000    -0.449685   
O56      O      0.530550000000     0.983220000000     0.837220000000    -0.449762   
O57      O      0.530690000000     0.483730000000     0.837260000000    -0.449861   
O58      O      0.530620000000     0.487710000000     0.901270000000    -0.449683   
O59      O      0.530650000000     0.421770000000     0.870280000000    -0.449761   
O60      O      0.530650000000     0.549550000000     0.868240000000    -0.449853   
O61      O      0.456600000000     0.549520000000     0.870600000000    -0.449734   
O62      O      0.456610000000     0.421780000000     0.867900000000    -0.449797   
O63      O      0.456570000000     0.482950000000     0.901240000000    -0.449638   
O64      O      0.456640000000     0.488330000000     0.837250000000    -0.449673   
O65      O      0.929670000000     0.956000000000     0.369940000000    -0.449044   
O66      O      0.057510000000     0.956130000000     0.367940000000    -0.449198   
O67      O      0.995600000000     0.954880000000     0.400950000000    -0.449048   
O68      O      0.991640000000     0.957190000000     0.336910000000    -0.449255   
O69      O      0.996260000000     0.031230000000     0.337580000000    -0.450288   
O70      O      0.990730000000     0.028920000000     0.401530000000    -0.450202   
O71      O      0.057390000000     0.030080000000     0.370940000000    -0.44998    
O72      O      0.929710000000     0.030120000000     0.368160000000    -0.450251   
O73      O      0.994980000000     0.532730000000     0.337790000000    -0.449746   
O74      O      0.992010000000     0.529220000000     0.401730000000    -0.451972   
O75      O      0.057480000000     0.530880000000     0.370580000000    -0.44997    
O76      O      0.929640000000     0.530940000000     0.369370000000    -0.450117   
O77      O      0.929720000000     0.456730000000     0.368840000000    -0.45022    
O78      O      0.057480000000     0.456830000000     0.368230000000    -0.450263   
O79      O      0.994500000000     0.455080000000     0.400790000000    -0.448244   
O80      O      0.992760000000     0.458590000000     0.336710000000    -0.450253   
O81      O      0.496380000000     0.958220000000     0.401540000000    -0.450332   
O82      O      0.490870000000     0.955860000000     0.337590000000    -0.450181   
O83      O      0.557410000000     0.956990000000     0.368170000000    -0.450354   
O84      O      0.429730000000     0.957030000000     0.370940000000    -0.450038   
O85      O      0.429610000000     0.030990000000     0.367930000000    -0.449185   
O86      O      0.557450000000     0.031110000000     0.369940000000    -0.449162   
O87      O      0.495480000000     0.029900000000     0.336910000000    -0.449424   
O88      O      0.491520000000     0.032250000000     0.400940000000    -0.449135   
O89      O      0.557480000000     0.456060000000     0.369370000000    -0.450127   
O90      O      0.429650000000     0.456120000000     0.370580000000    -0.449939   
O91      O      0.492150000000     0.454270000000     0.337790000000    -0.449827   
O92      O      0.495110000000     0.457790000000     0.401730000000    -0.451873   
O93      O      0.492620000000     0.531940000000     0.400790000000    -0.448161   
O94      O      0.494370000000     0.528400000000     0.336710000000    -0.450272   
O95      O      0.429650000000     0.530180000000     0.368220000000    -0.450339   
O96      O      0.557410000000     0.530280000000     0.368840000000    -0.450159   
O97      O      0.057420000000     0.031040000000     0.619590000000    -0.450119   
O98      O      0.929580000000     0.030990000000     0.618390000000    -0.449954   
O99      O      0.992090000000     0.032840000000     0.651170000000    -0.449854   
O100     O      0.995030000000     0.029320000000     0.587230000000    -0.451963   
O101     O      0.992550000000     0.955180000000     0.588180000000    -0.448111   
O102     O      0.994310000000     0.958700000000     0.652260000000    -0.450305   
O103     O      0.929580000000     0.956930000000     0.620740000000    -0.450388   
O104     O      0.057340000000     0.956830000000     0.620120000000    -0.449993   
O105     O      0.057360000000     0.530120000000     0.620790000000    -0.450259   
O106     O      0.929680000000     0.530080000000     0.618030000000    -0.450009   
O107     O      0.990820000000     0.531240000000     0.651380000000    -0.450195   
O108     O      0.996320000000     0.528900000000     0.587430000000    -0.450409   
O109     O      0.991460000000     0.454870000000     0.588020000000    -0.44928    
O110     O      0.995440000000     0.457200000000     0.652050000000    -0.44941    
O111     O      0.929560000000     0.456120000000     0.621040000000    -0.449205   
O112     O      0.057390000000     0.456000000000     0.619020000000    -0.449124   
O113     O      0.429580000000     0.956170000000     0.619590000000    -0.450224   
O114     O      0.557410000000     0.956220000000     0.618390000000    -0.449947   
O115     O      0.494890000000     0.954380000000     0.651170000000    -0.450077   
O116     O      0.491960000000     0.957890000000     0.587230000000    -0.451802   
O117     O      0.494450000000     0.032030000000     0.588180000000    -0.448105   
O118     O      0.492680000000     0.028510000000     0.652260000000    -0.450419   
O119     O      0.557410000000     0.030280000000     0.620740000000    -0.450371   
O120     O      0.429650000000     0.030380000000     0.620120000000    -0.450179   
O121     O      0.491570000000     0.529920000000     0.652050000000    -0.449324   
O122     O      0.495560000000     0.532230000000     0.588020000000    -0.44912    
O123     O      0.429620000000     0.531100000000     0.619020000000    -0.4492     
O124     O      0.557450000000     0.530980000000     0.621040000000    -0.449272   
O125     O      0.557330000000     0.457030000000     0.618030000000    -0.450164   
O126     O      0.429660000000     0.456990000000     0.620800000000    -0.450332   
O127     O      0.490700000000     0.458190000000     0.587430000000    -0.450173   
O128     O      0.496190000000     0.455880000000     0.651380000000    -0.450311   


