data_structure

_audit_creation_method RASPA-1.0
_audit_creation_date 2023-6-5
_audit_author_name 'Poobodin Mano'

_cell_length_a    49.0049
_cell_length_b    49.0335
_cell_length_c    29.3596
_cell_angle_alpha 89.9837
_cell_angle_beta  90.0162
_cell_angle_gamma 119.963
_cell_volume      61118.8

_symmetry_cell_setting          triclinic
_symmetry_space_group_name_Hall 'P 1'
_symmetry_space_group_name_H-M  'P 1'
_symmetry_Int_Tables_number     1

_symmetry_equiv_pos_as_xyz 'x,y,z'

loop_
_atom_site_label
_atom_site_type_symbol
_atom_site_fract_x
_atom_site_fract_y
_atom_site_fract_z
_atom_site_charge
C1       C      0.841340000000     0.662970000000     0.552200000000     0.434537   
C2       C      0.811040000000     0.659160000000     0.719920000000     0.444106   
C3       C      0.768390000000     0.634310000000     0.611900000000     0.435186   
C4       C      0.884020000000     0.687680000000     0.660000000000     0.435824   
C5       C      0.173630000000     0.838860000000     0.721780000000     0.443529   
C6       C      0.143310000000     0.813980000000     0.889730000000     0.435833   
C7       C      0.100380000000     0.796090000000     0.782180000000     0.447149   
C8       C      0.216300000000     0.856840000000     0.829530000000     0.435084   
C9       C      0.476680000000     0.994080000000     0.052980000000     0.443754   
C10      C      0.508440000000     0.000900000000     0.885480000000     0.435438   
C11      C      0.550210000000     0.025480000000     0.994150000000     0.435506   
C12      C      0.434810000000     0.969620000000     0.944210000000     0.445448   
C13      C      0.143700000000     0.316840000000     0.386060000000     0.445698   
C14      C      0.175930000000     0.326860000000     0.218290000000     0.442201   
C15      C      0.217590000000     0.351040000000     0.326850000000     0.443414   
C16      C      0.102130000000     0.292630000000     0.276930000000     0.44519    
C17      C      0.841230000000     0.171550000000     0.053020000000     0.436662   
C18      C      0.810220000000     0.149180000000     0.220860000000     0.435185   
C19      C      0.768020000000     0.133080000000     0.112610000000     0.447278   
C20      C      0.883700000000     0.187830000000     0.161010000000     0.435445   
C21      C      0.508060000000     0.509460000000     0.384470000000     0.443974   
C22      C      0.478710000000     0.484170000000     0.552690000000     0.446367   
C23      C      0.435390000000     0.465650000000     0.444950000000     0.435196   
C24      C      0.551240000000     0.528050000000     0.492260000000     0.445453   
C25      C      0.144030000000     0.325610000000     0.718100000000     0.435217   
C26      C      0.170890000000     0.324730000000     0.886200000000     0.43524    
C27      C      0.189320000000     0.299090000000     0.779380000000     0.434753   
C28      C      0.125590000000     0.351520000000     0.825000000000     0.434436   
C29      C      0.328450000000     0.176990000000     0.552950000000     0.443853   
C30      C      0.330940000000     0.150670000000     0.721170000000     0.447642   
C31      C      0.357100000000     0.133100000000     0.614030000000     0.446123   
C32      C      0.302460000000     0.194720000000     0.660440000000     0.445063   
C33      C      0.992480000000     0.507100000000     0.886970000000     0.443804   
C34      C      0.992310000000     0.478400000000     0.054730000000     0.445985   
C35      C      0.017360000000     0.459930000000     0.946970000000     0.441789   
C36      C      0.967200000000     0.525570000000     0.994420000000     0.445685   
C37      C      0.660180000000     0.842970000000     0.219710000000     0.444266   
C38      C      0.664540000000     0.816820000000     0.387550000000     0.446023   
C39      C      0.687990000000     0.797670000000     0.279190000000     0.445878   
C40      C      0.636640000000     0.861980000000     0.328010000000     0.444056   
C41      C      0.841010000000     0.659920000000     0.220040000000     0.444012   
C42      C      0.814670000000     0.663820000000     0.052250000000     0.434466   
C43      C      0.796850000000     0.688900000000     0.160060000000     0.435096   
C44      C      0.858710000000     0.634900000000     0.112250000000     0.434031   
C45      C      0.482330000000     0.998010000000     0.385030000000     0.434731   
C46      C      0.509300000000     0.996400000000     0.553100000000     0.444293   
C47      C      0.527150000000     0.970340000000     0.446010000000     0.434013   
C48      C      0.464540000000     0.023910000000     0.492010000000     0.434986   
C49      C      0.321240000000     0.144010000000     0.053060000000     0.435781   
C50      C      0.329110000000     0.175690000000     0.220600000000     0.434392   
C51      C      0.353730000000     0.217460000000     0.112010000000     0.434833   
C52      C      0.296340000000     0.101950000000     0.161490000000     0.44609    
C53      C      0.506740000000     0.508870000000     0.052360000000     0.436066   
C54      C      0.481920000000     0.477380000000     0.884930000000     0.435809   
C55      C      0.464970000000     0.435380000000     0.994010000000     0.446647   
C56      C      0.524180000000     0.550740000000     0.943610000000     0.445595   
C57      C      0.171320000000     0.842240000000     0.389650000000     0.434584   
C58      C      0.146620000000     0.811550000000     0.221790000000     0.443969   
C59      C      0.129080000000     0.769090000000     0.329610000000     0.434301   
C60      C      0.188880000000     0.884860000000     0.281710000000     0.434998   
C61      C      0.997310000000     0.508910000000     0.554770000000     0.434794   
C62      C      0.989260000000     0.477750000000     0.386980000000     0.43551    
C63      C      0.965140000000     0.435600000000     0.495270000000     0.435121   
C64      C      0.021620000000     0.551320000000     0.446930000000     0.443204   
C65      C      0.813800000000     0.145180000000     0.552580000000     0.44427    
C66      C      0.839880000000     0.174100000000     0.720660000000     0.446312   
C67      C      0.857420000000     0.217750000000     0.613430000000     0.447834   
C68      C      0.796060000000     0.101690000000     0.659680000000     0.435057   
C69      C      0.662030000000     0.841970000000     0.887460000000     0.434249   
C70      C      0.656780000000     0.811670000000     0.719630000000     0.435035   
C71      C      0.631370000000     0.768910000000     0.827460000000     0.435148   
C72      C      0.687520000000     0.884810000000     0.779980000000     0.4438     
C73      C      0.734880000000     0.934500000000     0.768180000000     0.243487   
C74      C      0.685230000000     0.927570000000     0.745960000000     0.082711   
C75      C      0.749930000000     0.965080000000     0.750470000000    -0.15823    
C76      C      0.778660000000     0.022050000000     0.689720000000    -0.0799509  
C77      C      0.699710000000     0.957860000000     0.727480000000    -0.104937   
C78      C      0.748600000000     0.009360000000     0.709180000000     0.0239409  
C79      C      0.732520000000     0.977040000000     0.729200000000     0.0668783  
C80      C      0.794040000000     0.052800000000     0.672930000000     0.0723236  
C81      C      0.750160000000     0.058520000000     0.691860000000     0.071291   
C82      C      0.734330000000     0.028030000000     0.709730000000    -0.0804931  
C83      C      0.905660000000     0.266080000000     0.598350000000     0.244407   
C84      C      0.856160000000     0.261500000000     0.581780000000     0.0841015  
C85      C      0.921060000000     0.297160000000     0.582230000000    -0.157515   
C86      C      0.950770000000     0.357330000000     0.527870000000    -0.0798391  
C87      C      0.870900000000     0.291830000000     0.563710000000    -0.105022   
C88      C      0.919950000000     0.343270000000     0.545230000000     0.0237187  
C89      C      0.903830000000     0.310410000000     0.563900000000     0.0665567  
C90      C      0.965600000000     0.388240000000     0.511570000000     0.0712431  
C91      C      0.919770000000     0.391430000000     0.526230000000     0.0712326  
C92      C      0.904680000000     0.361070000000     0.544370000000    -0.0806517  
C93      C      0.068950000000     0.601190000000     0.435890000000     0.243329   
C94      C      0.019370000000     0.594060000000     0.412870000000     0.0821527  
C95      C      0.083940000000     0.631970000000     0.418870000000    -0.158024   
C96      C      0.112950000000     0.689910000000     0.360000000000    -0.0805536  
C97      C      0.033790000000     0.624510000000     0.394980000000    -0.104569   
C98      C      0.082500000000     0.676520000000     0.378350000000     0.0237571  
C99      C      0.066530000000     0.643960000000     0.397570000000     0.066328   
C100     C      0.128060000000     0.720770000000     0.343660000000     0.0711012  
C101     C      0.083250000000     0.725290000000     0.360820000000     0.0708349  
C102     C      0.067680000000     0.694700000000     0.378340000000    -0.0805981  
C103     C      0.569580000000     0.594410000000     0.909060000000     0.243403   
C104     C      0.525530000000     0.599240000000     0.930800000000     0.0827489  
C105     C      0.584480000000     0.625030000000     0.891520000000    -0.158307   
C106     C      0.619060000000     0.695030000000     0.876970000000    -0.0800485  
C107     C      0.540280000000     0.630160000000     0.914660000000    -0.104881   
C108     C      0.586120000000     0.676340000000     0.876180000000     0.0237514  
C109     C      0.570070000000     0.643480000000     0.894330000000     0.0668493  
C110     C      0.633770000000     0.725590000000     0.859540000000     0.0715341  
C111     C      0.584250000000     0.720340000000     0.841520000000     0.0710611  
C112     C      0.568780000000     0.689410000000     0.857730000000    -0.0803728  
C113     C      0.248750000000     0.052480000000     0.174290000000     0.243197   
C114     C      0.298410000000     0.059250000000     0.196040000000     0.0828827  
C115     C      0.233770000000     0.021650000000     0.191190000000    -0.158231   
C116     C      0.204960000000     0.963900000000     0.250530000000    -0.0803818  
C117     C      0.283980000000     0.028910000000     0.214260000000    -0.105123   
C118     C      0.235260000000     0.977110000000     0.231730000000     0.0235928  
C119     C      0.251210000000     0.009590000000     0.212170000000     0.0665485  
C120     C      0.189910000000     0.933150000000     0.267310000000     0.0712453  
C121     C      0.234530000000     0.928410000000     0.249690000000     0.0712512  
C122     C      0.250020000000     0.958870000000     0.231710000000    -0.0800582  
C123     C      0.466130000000     0.391350000000     0.027870000000     0.24394    
C124     C      0.417360000000     0.387870000000     0.009290000000     0.0832075  
C125     C      0.450230000000     0.360910000000     0.045910000000    -0.158818   
C126     C      0.415110000000     0.291620000000     0.063350000000    -0.0800117  
C127     C      0.400940000000     0.356890000000     0.025330000000    -0.104368   
C128     C      0.400330000000     0.309870000000     0.062310000000     0.0236509  
C129     C      0.417270000000     0.342890000000     0.044320000000     0.0667327  
C130     C      0.399500000000     0.261220000000     0.081270000000     0.0715183  
C131     C      0.353980000000     0.265140000000     0.095020000000     0.0711901  
C132     C      0.369330000000     0.296120000000     0.078870000000    -0.0798678  
C133     C      0.690620000000     0.829560000000     0.460530000000     0.245407   
C134     C      0.637960000000     0.787470000000     0.453540000000     0.083359   
C135     C      0.689220000000     0.825270000000     0.507780000000    -0.158758   
C136     C      0.632050000000     0.798740000000     0.600130000000    -0.0808253  
C137     C      0.635800000000     0.783070000000     0.500690000000    -0.105684   
C138     C      0.658610000000     0.800830000000     0.578900000000     0.0236878  
C139     C      0.661400000000     0.802510000000     0.528470000000     0.0676432  
C140     C      0.631370000000     0.801300000000     0.647420000000     0.0713963  
C141     C      0.681810000000     0.806070000000     0.653540000000     0.0719175  
C142     C      0.683360000000     0.803820000000     0.606270000000    -0.0804084  
C143     C      0.685370000000     0.872990000000     0.151990000000     0.242601   
C144     C      0.633810000000     0.828580000000     0.148420000000     0.083472   
C145     C      0.685880000000     0.875730000000     0.104460000000    -0.158496   
C146     C      0.688370000000     0.857260000000     0.006150000000    -0.0807132  
C147     C      0.633570000000     0.831080000000     0.101110000000    -0.105306   
C148     C      0.661740000000     0.854530000000     0.028000000000     0.0234155  
C149     C      0.660120000000     0.854280000000     0.078480000000     0.066714   
C150     C      0.688390000000     0.853910000000     0.958970000000     0.0709746  
C151     C      0.637010000000     0.846980000000     0.954060000000     0.0702558  
C152     C      0.636060000000     0.849860000000     0.001330000000    -0.081456   
C153     C      0.684610000000     0.751160000000     0.245560000000     0.243622   
C154     C      0.734150000000     0.794550000000     0.266310000000     0.0848822  
C155     C      0.699660000000     0.735600000000     0.227580000000    -0.157073   
C156     C      0.734820000000     0.700490000000     0.210180000000    -0.0797855  
C157     C      0.749630000000     0.779230000000     0.249710000000    -0.104002   
C158     C      0.748950000000     0.733430000000     0.209780000000     0.0242804  
C159     C      0.732530000000     0.749550000000     0.229280000000     0.0670084  
C160     C      0.750800000000     0.685950000000     0.192290000000     0.071501   
C161     C      0.794660000000     0.735600000000     0.173980000000     0.0724028  
C162     C      0.779120000000     0.750870000000     0.190670000000    -0.0799855  
C163     C      0.639940000000     0.908510000000     0.361470000000     0.241653   
C164     C      0.590430000000     0.864990000000     0.340940000000     0.0820454  
C165     C      0.624850000000     0.924030000000     0.379410000000    -0.157811   
C166     C      0.589410000000     0.958950000000     0.396330000000    -0.0802294  
C167     C      0.574900000000     0.880250000000     0.357540000000    -0.105407   
C168     C      0.575490000000     0.926050000000     0.397230000000     0.0231454  
C169     C      0.591970000000     0.909980000000     0.377820000000     0.065809   
C170     C      0.573300000000     0.973430000000     0.413950000000     0.0702761  
C171     C      0.529760000000     0.923760000000     0.433110000000     0.070388   
C172     C      0.545430000000     0.908570000000     0.416670000000    -0.0808779  
C173     C      0.020160000000     0.536580000000     0.820060000000     0.242155   
C174     C      0.967340000000     0.494550000000     0.814800000000     0.0824633  
C175     C      0.021400000000     0.540100000000     0.772610000000    -0.159547   
C176     C      0.023470000000     0.522140000000     0.673630000000    -0.0811476  
C177     C      0.967950000000     0.497660000000     0.767560000000    -0.106219   
C178     C      0.997500000000     0.520980000000     0.695410000000     0.0232764  
C179     C      0.995420000000     0.520100000000     0.745840000000     0.0671409  
C180     C      0.023480000000     0.519080000000     0.626360000000     0.0703459  
C181     C      0.973560000000     0.515650000000     0.621390000000     0.0704894  
C182     C      0.972640000000     0.518330000000     0.668650000000    -0.08128    
C183     C      0.965260000000     0.448530000000     0.121750000000     0.243518   
C184     C      0.017700000000     0.491320000000     0.126680000000     0.0841817  
C185     C      0.964080000000     0.445370000000     0.169280000000    -0.158297   
C186     C      0.962030000000     0.462970000000     0.268580000000    -0.0808041  
C187     C      0.017270000000     0.488390000000     0.173920000000    -0.105745   
C188     C      0.988250000000     0.464970000000     0.246380000000     0.0241077  
C189     C      0.990030000000     0.465750000000     0.195890000000     0.0673959  
C190     C      0.962330000000     0.466270000000     0.315860000000     0.071485   
C191     C      0.013100000000     0.471640000000     0.319990000000     0.0711792  
C192     C      0.013680000000     0.468660000000     0.272750000000    -0.0817156  
C193     C      0.970820000000     0.572120000000     0.028340000000     0.244067   
C194     C      0.921320000000     0.529400000000     0.005840000000     0.0844722  
C195     C      0.955860000000     0.587830000000     0.046080000000    -0.15739    
C196     C      0.920910000000     0.623310000000     0.062800000000    -0.0799849  
C197     C      0.905950000000     0.544850000000     0.022250000000    -0.104787   
C198     C      0.906670000000     0.590380000000     0.062910000000     0.0237126  
C199     C      0.923050000000     0.574240000000     0.043470000000     0.0668044  
C200     C      0.904890000000     0.637850000000     0.080520000000     0.0707053  
C201     C      0.860840000000     0.588180000000     0.098240000000     0.0708813  
C202     C      0.876390000000     0.572920000000     0.081640000000    -0.0807485  
C203     C      0.356120000000     0.163080000000     0.794780000000     0.246363   
C204     C      0.303420000000     0.121240000000     0.786580000000     0.0842772  
C205     C      0.354160000000     0.158530000000     0.841970000000    -0.158522   
C206     C      0.346970000000     0.135230000000     0.939680000000    -0.081061   
C207     C      0.300660000000     0.116670000000     0.833690000000    -0.105708   
C208     C      0.322840000000     0.133650000000     0.912300000000     0.0238071  
C209     C      0.326040000000     0.135780000000     0.861990000000     0.0680329  
C210     C      0.345340000000     0.137200000000     0.986940000000     0.0716981  
C211     C      0.295990000000     0.134900000000     0.980800000000     0.0720953  
C212     C      0.296720000000     0.132580000000     0.933440000000    -0.080619   
C213     C      0.354600000000     0.206400000000     0.485180000000     0.242377   
C214     C      0.302470000000     0.162940000000     0.481440000000     0.0831007  
C215     C      0.355080000000     0.209470000000     0.437670000000    -0.158707   
C216     C      0.304750000000     0.184720000000     0.334960000000    -0.0808341  
C217     C      0.302320000000     0.165570000000     0.434180000000    -0.105935   
C218     C      0.330480000000     0.188970000000     0.361130000000     0.0232678  
C219     C      0.329070000000     0.188530000000     0.411640000000     0.0669847  
C220     C      0.305190000000     0.181600000000     0.287710000000     0.0706543  
C221     C      0.356290000000     0.187750000000     0.291510000000     0.0708639  
C222     C      0.356760000000     0.191260000000     0.338740000000    -0.0809842  
C223     C      0.404130000000     0.130060000000     0.601880000000     0.243671   
C224     C      0.354200000000     0.087750000000     0.579980000000     0.082865   
C225     C      0.418780000000     0.114010000000     0.584590000000    -0.158242   
C226     C      0.446980000000     0.085880000000     0.522910000000    -0.0801042  
C227     C      0.368340000000     0.071590000000     0.561430000000    -0.104812   
C228     C      0.416970000000     0.068490000000     0.542490000000     0.0238188  
C229     C      0.401100000000     0.084790000000     0.563110000000     0.0669535  
C230     C      0.462310000000     0.070580000000     0.505720000000     0.0723188  
C231     C      0.418440000000     0.020950000000     0.524190000000     0.0710867  
C232     C      0.402620000000     0.035550000000     0.542490000000    -0.0798946  
C233     C      0.013530000000     0.413680000000     0.911700000000     0.241628   
C234     C      0.063140000000     0.456070000000     0.934570000000     0.0818534  
C235     C      0.028310000000     0.397830000000     0.893830000000    -0.157562   
C236     C      0.063300000000     0.362440000000     0.875750000000    -0.0801172  
C237     C      0.078380000000     0.440650000000     0.917500000000    -0.105358   
C238     C      0.077360000000     0.395360000000     0.875740000000     0.0234687  
C239     C      0.061110000000     0.411370000000     0.896050000000     0.0658023  
C240     C      0.079330000000     0.348080000000     0.857380000000     0.0709313  
C241     C      0.122890000000     0.397920000000     0.838890000000     0.0709423  
C242     C      0.107350000000     0.412990000000     0.856200000000    -0.0813355  
C243     C      0.304420000000     0.240520000000     0.694210000000     0.243202   
C244     C      0.255490000000     0.196430000000     0.673000000000     0.0830724  
C245     C      0.288690000000     0.255350000000     0.712230000000    -0.157881   
C246     C      0.252210000000     0.289020000000     0.729190000000    -0.0800942  
C247     C      0.239320000000     0.211030000000     0.689690000000    -0.104977   
C248     C      0.238730000000     0.256160000000     0.729740000000     0.0236915  
C249     C      0.255780000000     0.240690000000     0.710300000000     0.0667372  
C250     C      0.235750000000     0.303010000000     0.747120000000     0.0711549  
C251     C      0.192620000000     0.252940000000     0.765770000000     0.0710632  
C252     C      0.208670000000     0.238210000000     0.749000000000    -0.0804356  
C253     C      0.466540000000     0.497410000000     0.626180000000     0.245392   
C254     C      0.476480000000     0.454920000000     0.618480000000     0.083954   
C255     C      0.464080000000     0.493130000000     0.673460000000    -0.158554   
C256     C      0.448130000000     0.470670000000     0.771470000000    -0.0809707  
C257     C      0.474670000000     0.450530000000     0.665590000000    -0.1058     
C258     C      0.470030000000     0.468000000000     0.744060000000     0.0239552  
C259     C      0.468980000000     0.470110000000     0.693720000000     0.0678445  
C260     C      0.451660000000     0.472310000000     0.818740000000     0.0718142  
C261     C      0.497300000000     0.467490000000     0.812590000000     0.0726276  
C262     C      0.494340000000     0.465540000000     0.765210000000    -0.0803003  
C263     C      0.512600000000     0.539310000000     0.316660000000     0.242891   
C264     C      0.519810000000     0.494900000000     0.313190000000     0.0830433  
C265     C      0.515500000000     0.542430000000     0.269220000000    -0.159444   
C266     C      0.494900000000     0.523900000000     0.170760000000    -0.0807865  
C267     C      0.522920000000     0.497600000000     0.265940000000    -0.105938   
C268     C      0.518920000000     0.521500000000     0.192880000000     0.0234976  
C269     C      0.519950000000     0.521050000000     0.243330000000     0.0672585  
C270     C      0.491770000000     0.520570000000     0.123560000000     0.0717477  
C271     C      0.536750000000     0.514490000000     0.119200000000     0.0723312  
C272     C      0.540320000000     0.517290000000     0.166510000000    -0.0804111  
C273     C      0.869700000000     0.177630000000     0.787990000000     0.244624   
C274     C      0.825660000000     0.185410000000     0.792550000000     0.0839898  
C275     C      0.872510000000     0.179280000000     0.835490000000    -0.159244   
C276     C      0.849430000000     0.204780000000     0.938820000000    -0.080671   
C277     C      0.828310000000     0.187710000000     0.839860000000    -0.105901   
C278     C      0.852170000000     0.182600000000     0.912250000000     0.0240326  
C279     C      0.851400000000     0.183810000000     0.861890000000     0.067951   
C280     C      0.847190000000     0.201480000000     0.986120000000     0.0730582  
C281     C      0.850950000000     0.155180000000     0.981440000000     0.0722588  
C282     C      0.853690000000     0.158020000000     0.934120000000    -0.0806407  
C283     C      0.826220000000     0.131900000000     0.479560000000     0.243864   
C284     C      0.784850000000     0.143590000000     0.486750000000     0.0825326  
C285     C      0.822500000000     0.130040000000     0.432260000000    -0.15929    
C286     C      0.798320000000     0.162600000000     0.340120000000    -0.0807611  
C287     C      0.780860000000     0.142160000000     0.439550000000    -0.106551   
C288     C      0.798630000000     0.137210000000     0.361440000000     0.0233465  
C289     C      0.800190000000     0.135900000000     0.411740000000     0.0673926  
C290     C      0.801120000000     0.165720000000     0.292800000000     0.0709677  
C291     C      0.802460000000     0.118160000000     0.287110000000     0.0710365  
C292     C      0.799970000000     0.114470000000     0.334310000000    -0.0812618  
C293     C      0.132890000000     0.290490000000     0.458850000000     0.244431   
C294     C      0.136760000000     0.340580000000     0.452120000000     0.0834986  
C295     C      0.129460000000     0.291260000000     0.506140000000    -0.158005   
C296     C      0.111500000000     0.295360000000     0.604870000000    -0.0807506  
C297     C      0.133930000000     0.342140000000     0.499160000000    -0.106283   
C298     C      0.131870000000     0.320650000000     0.577160000000     0.0235676  
C299     C      0.130940000000     0.317650000000     0.526840000000     0.0673659  
C300     C      0.114940000000     0.297900000000     0.652210000000     0.0714637  
C301     C      0.157700000000     0.350060000000     0.645250000000     0.071432   
C302     C      0.154670000000     0.348460000000     0.597950000000    -0.0813712  
C303     C      0.183940000000     0.304530000000     0.149900000000     0.241359   
C304     C      0.185310000000     0.353630000000     0.147540000000     0.0815212  
C305     C      0.185940000000     0.304530000000     0.102360000000    -0.159584   
C306     C      0.162210000000     0.299890000000     0.005380000000    -0.081256   
C307     C      0.187800000000     0.354410000000     0.100140000000    -0.106012   
C308     C      0.185100000000     0.327420000000     0.026600000000     0.0234388  
C309     C      0.187120000000     0.329190000000     0.076980000000     0.0662684  
C310     C      0.158310000000     0.299190000000     0.958270000000     0.0714271  
C311     C      0.200340000000     0.351820000000     0.952240000000     0.0706403  
C312     C      0.204560000000     0.353480000000     0.999470000000    -0.0819459  
C313     C      0.058270000000     0.247420000000     0.242760000000     0.244984   
C314     C      0.054150000000     0.292040000000     0.263270000000     0.0843659  
C315     C      0.027530000000     0.232610000000     0.225500000000    -0.156909   
C316     C      0.957870000000     0.198770000000     0.207470000000    -0.0800602  
C317     C      0.023140000000     0.277420000000     0.247560000000    -0.104011   
C318     C      0.976410000000     0.231730000000     0.209430000000     0.0249546  
C319     C      0.009350000000     0.247410000000     0.227750000000     0.0663575  
C320     C      0.927330000000     0.184560000000     0.189900000000     0.0720773  
C321     C      0.931990000000     0.234460000000     0.177780000000     0.071976   
C322     C      0.963020000000     0.249490000000     0.193600000000    -0.0806375  
C323     C      0.267040000000     0.353220000000     0.340490000000     0.242633   
C324     C      0.260140000000     0.396330000000     0.360120000000     0.0828035  
C325     C      0.297900000000     0.369340000000     0.357390000000    -0.157517   
C326     C      0.357910000000     0.400470000000     0.412070000000    -0.0798293  
C327     C      0.290400000000     0.412460000000     0.378530000000    -0.104943   
C328     C      0.342830000000     0.416590000000     0.395990000000     0.0239617  
C329     C      0.310000000000     0.399230000000     0.377230000000     0.0659606  
C330     C      0.388890000000     0.417180000000     0.428090000000     0.0717395  
C331     C      0.390100000000     0.465490000000     0.415680000000     0.0719651  
C332     C      0.359640000000     0.449630000000     0.397890000000    -0.0809969  
C333     C      0.539160000000     0.022900000000     0.620390000000     0.242486   
C334     C      0.495040000000     0.971240000000     0.625210000000     0.0828439  
C335     C      0.541910000000     0.024160000000     0.667970000000    -0.158503   
C336     C      0.523760000000     0.027280000000     0.766700000000    -0.0801098  
C337     C      0.497570000000     0.971720000000     0.672530000000    -0.105833   
C338     C      0.521200000000     0.000680000000     0.745000000000     0.0237202  
C339     C      0.520680000000     0.998670000000     0.694540000000     0.0669543  
C340     C      0.520420000000     0.027370000000     0.813940000000     0.0727639  
C341     C      0.513950000000     0.976210000000     0.819010000000     0.0714297  
C342     C      0.516870000000     0.975210000000     0.771810000000    -0.081535   
C343     C      0.469920000000     0.017940000000     0.120730000000     0.242113   
C344     C      0.466640000000     0.968000000000     0.124360000000     0.0822305  
C345     C      0.468020000000     0.018480000000     0.168280000000    -0.15908    
C346     C      0.447960000000     0.969790000000     0.271960000000    -0.0816982  
C347     C      0.464210000000     0.967750000000     0.171720000000    -0.105985   
C348     C      0.467810000000     0.995610000000     0.244690000000     0.0232652  
C349     C      0.465860000000     0.993600000000     0.194290000000     0.0664448  
C350     C      0.452310000000     0.971390000000     0.319170000000     0.0704044  
C351     C      0.495130000000     0.023580000000     0.312930000000     0.0711039  
C352     C      0.491150000000     0.022940000000     0.265820000000    -0.0814193  
C353     C      0.724440000000     0.135720000000     0.079760000000     0.243675   
C354     C      0.719620000000     0.086370000000     0.098150000000     0.0834394  
C355     C      0.693950000000     0.120450000000     0.061680000000    -0.158552   
C356     C      0.624630000000     0.086300000000     0.042950000000    -0.0798445  
C357     C      0.688660000000     0.070610000000     0.082100000000    -0.104985   
C358     C      0.642480000000     0.071100000000     0.044400000000     0.0236585  
C359     C      0.675370000000     0.087520000000     0.062940000000     0.0666813  
C360     C      0.594280000000     0.071000000000     0.024810000000     0.072221   
C361     C      0.597510000000     0.025070000000     0.011510000000     0.0713104  
C362     C      0.628440000000     0.040090000000     0.027840000000    -0.0802361  
C363     C      0.187390000000     0.825920000000     0.649400000000     0.242802   
C364     C      0.176710000000     0.868000000000     0.655370000000     0.0820359  
C365     C      0.189850000000     0.829550000000     0.602050000000    -0.159045   
C366     C      0.159300000000     0.855580000000     0.508860000000    -0.0808424  
C367     C      0.178880000000     0.872000000000     0.608150000000    -0.106236   
C368     C      0.183710000000     0.853530000000     0.530380000000     0.0231482  
C369     C      0.184840000000     0.852210000000     0.580840000000     0.0667059  
C370     C      0.156140000000     0.852840000000     0.461570000000     0.0707839  
C371     C      0.201750000000     0.847930000000     0.456010000000     0.0707438  
C372     C      0.205480000000     0.850350000000     0.503290000000    -0.0810329  
C373     C      0.159830000000     0.798010000000     0.149450000000     0.243429   
C374     C      0.117290000000     0.808020000000     0.155380000000     0.0828971  
C375     C      0.156220000000     0.795520000000     0.102100000000    -0.158854   
C376     C      0.129720000000     0.825630000000     0.008980000000    -0.0800934  
C377     C      0.113300000000     0.805820000000     0.108160000000    -0.105968   
C378     C      0.132050000000     0.801370000000     0.030420000000     0.0237258  
C379     C      0.133340000000     0.800200000000     0.080870000000     0.0673333  
C380     C      0.132470000000     0.828870000000     0.961700000000     0.0721597  
C381     C      0.137950000000     0.783610000000     0.956020000000     0.0715619  
C382     C      0.135530000000     0.779820000000     0.003290000000    -0.0805412  
C383     C      0.390950000000     0.971050000000     0.909580000000     0.243262   
C384     C      0.386310000000     0.922430000000     0.932220000000     0.0826732  
C385     C      0.360260000000     0.955140000000     0.892190000000    -0.158408   
C386     C      0.290130000000     0.919220000000     0.877920000000    -0.0801056  
C387     C      0.355350000000     0.906070000000     0.916260000000    -0.105304   
C388     C      0.309060000000     0.905220000000     0.877420000000     0.0235857  
C389     C      0.341930000000     0.922310000000     0.895480000000     0.0667798  
C390     C      0.259490000000     0.903000000000     0.860780000000     0.0714074  
C391     C      0.265180000000     0.858900000000     0.843530000000     0.0707173  
C392     C      0.296190000000     0.874730000000     0.859460000000    -0.0804082  
C393     C      0.805790000000     0.684500000000     0.787160000000     0.24285    
C394     C      0.799880000000     0.633460000000     0.791710000000     0.0826429  
C395     C      0.803680000000     0.685360000000     0.834670000000    -0.158531   
C396     C      0.825000000000     0.689140000000     0.933090000000    -0.0807915  
C397     C      0.797270000000     0.633560000000     0.839020000000    -0.105562   
C398     C      0.801480000000     0.662100000000     0.911610000000     0.0235943  
C399     C      0.800050000000     0.660050000000     0.861140000000     0.0668157  
C400     C      0.828460000000     0.689640000000     0.980320000000     0.0714999  
C401     C      0.784780000000     0.637910000000     0.985950000000     0.0705372  
C402     C      0.780890000000     0.636480000000     0.938660000000    -0.0812793  
C403     C      0.871640000000     0.684920000000     0.287400000000     0.242545   
C404     C      0.826490000000     0.633900000000     0.291560000000     0.082424   
C405     C      0.874650000000     0.685520000000     0.334910000000    -0.158677   
C406     C      0.857090000000     0.688890000000     0.433370000000    -0.0809793  
C407     C      0.829220000000     0.633740000000     0.338840000000    -0.10582    
C408     C      0.853490000000     0.661890000000     0.411660000000     0.0233454  
C409     C      0.852960000000     0.660080000000     0.361170000000     0.0664339  
C410     C      0.853900000000     0.689160000000     0.480560000000     0.0712702  
C411     C      0.845460000000     0.637250000000     0.485770000000     0.0703957  
C412     C      0.848160000000     0.636060000000     0.438480000000    -0.0815212  
C413     C      0.594620000000     0.573940000000     0.526490000000     0.243556   
C414     C      0.600260000000     0.530440000000     0.504420000000     0.0830702  
C415     C      0.625170000000     0.589040000000     0.544460000000    -0.158357   
C416     C      0.695280000000     0.623460000000     0.561240000000    -0.0800903  
C417     C      0.631030000000     0.545330000000     0.521050000000    -0.105368   
C418     C      0.676290000000     0.590570000000     0.561510000000     0.0235904  
C419     C      0.643810000000     0.574830000000     0.542060000000     0.0669484  
C420     C      0.725680000000     0.637730000000     0.579350000000     0.0710941  
C421     C      0.719430000000     0.587840000000     0.597520000000     0.0710884  
C422     C      0.688720000000     0.572840000000     0.580570000000    -0.0807419  
C423     C      0.050470000000     0.793340000000     0.770030000000     0.244148   
C424     C      0.057890000000     0.750880000000     0.748090000000     0.0836931  
C425     C      0.019770000000     0.777390000000     0.752830000000    -0.15888    
C426     C      0.963440000000     0.749480000000     0.691330000000    -0.0803391  
C427     C      0.027600000000     0.734840000000     0.729560000000    -0.10444    
C428     C      0.976000000000     0.731980000000     0.710770000000     0.0244395  
C429     C      0.008140000000     0.748160000000     0.731330000000     0.066688   
C430     C      0.932820000000     0.734270000000     0.674140000000     0.0726016  
C431     C      0.927010000000     0.684550000000     0.692300000000     0.0716272  
C432     C      0.957380000000     0.699050000000     0.710660000000    -0.0803082  
H1       H      0.817380000000     0.061690000000     0.658700000000     0.0306607  
H2       H      0.659820000000     0.913540000000     0.743000000000     0.0246809  
H3       H      0.711340000000     0.019580000000     0.724850000000     0.0501727  
H4       H      0.685130000000     0.965790000000     0.711020000000     0.056544   
H5       H      0.790400000000     0.008370000000     0.687230000000     0.0536665  
H6       H      0.775240000000     0.979410000000     0.754090000000     0.0813663  
H7       H      0.738360000000     0.072210000000     0.693610000000     0.0281792  
H8       H      0.754140000000     0.930240000000     0.821550000000     0.151974   
H9       H      0.989470000000     0.398170000000     0.498870000000     0.0278618  
H10      H      0.830630000000     0.248240000000     0.580470000000     0.0242139  
H11      H      0.881310000000     0.352070000000     0.558320000000     0.0497019  
H12      H      0.856190000000     0.300200000000     0.548980000000     0.0559049  
H13      H      0.963530000000     0.344640000000     0.526300000000     0.05088    
H14      H      0.946470000000     0.310690000000     0.584720000000     0.0804475  
H15      H      0.906990000000     0.404200000000     0.526540000000     0.0270805  
H16      H      0.929040000000     0.245250000000     0.589960000000     0.158237   
H17      H      0.151690000000     0.730170000000     0.330210000000     0.0282402  
H18      H      0.994000000000     0.579890000000     0.409320000000     0.0254024  
H19      H      0.044390000000     0.685750000000     0.392670000000     0.0500589  
H20      H      0.019200000000     0.632360000000     0.378360000000     0.0564724  
H21      H      0.125180000000     0.676690000000     0.357940000000     0.0523295  
H22      H      0.109190000000     0.646440000000     0.423110000000     0.0801659  
H23      H      0.070980000000     0.738540000000     0.362000000000     0.0278503  
H24      H      0.087850000000     0.596560000000     0.489380000000     0.152026   
H25      H      0.659270000000     0.739140000000     0.861190000000     0.0287894  
H26      H      0.502440000000     0.590080000000     0.946060000000     0.0245288  
H27      H      0.543360000000     0.675840000000     0.855300000000     0.050283   
H28      H      0.528330000000     0.643550000000     0.918660000000     0.0562056  
H29      H      0.633630000000     0.686470000000     0.891680000000     0.0510042  
H30      H      0.607150000000     0.633920000000     0.875130000000     0.0808672  
H31      H      0.569870000000     0.729500000000     0.827800000000     0.0275022  
H32      H      0.597940000000     0.582310000000     0.932630000000     0.153956   
H33      H      0.166390000000     0.923880000000     0.281100000000     0.0279119  
H34      H      0.323830000000     0.073240000000     0.199020000000     0.025009   
H35      H      0.273180000000     0.967650000000     0.217030000000     0.050784   
H36      H      0.298610000000     0.021030000000     0.230660000000     0.0563415  
H37      H      0.192800000000     0.977190000000     0.252630000000     0.05053    
H38      H      0.208480000000     0.007290000000     0.187390000000     0.0805411  
H39      H      0.246740000000     0.915100000000     0.248470000000     0.0295726  
H40      H      0.223700000000     0.071810000000     0.178860000000     0.15456    
H41      H      0.411990000000     0.248150000000     0.081220000000     0.0279408  
H42      H      0.403620000000     0.397600000000     0.995070000000     0.0240289  
H43      H      0.356880000000     0.309140000000     0.080020000000     0.0500589  
H44      H      0.375550000000     0.344060000000     0.022190000000     0.0563358  
H45      H      0.438540000000     0.300320000000     0.049790000000     0.0504729  
H46      H      0.464090000000     0.351910000000     0.061710000000     0.0803175  
H47      H      0.330020000000     0.255450000000     0.107240000000     0.0279646  
H48      H      0.506030000000     0.402520000000     0.003010000000     0.154821   
H49      H      0.610740000000     0.800520000000     0.662270000000     0.0279094  
H50      H      0.617220000000     0.772150000000     0.433640000000     0.0257777  
H51      H      0.704120000000     0.805040000000     0.591210000000     0.0535776  
H52      H      0.613980000000     0.764810000000     0.515340000000     0.0577746  
H53      H      0.612450000000     0.796590000000     0.580240000000     0.0512195  
H54      H      0.709560000000     0.840780000000     0.528220000000     0.0821293  
H55      H      0.701820000000     0.809110000000     0.673350000000     0.0302737  
H56      H      0.717290000000     0.872150000000     0.443570000000     0.159348   
H57      H      0.709210000000     0.855360000000     0.943660000000     0.0291573  
H58      H      0.612950000000     0.809540000000     0.164110000000     0.0269873  
H59      H      0.615160000000     0.847980000000     0.016950000000     0.0498776  
H60      H      0.613140000000     0.813950000000     0.082270000000     0.0579972  
H61      H      0.708650000000     0.860680000000     0.025540000000     0.0543576  
H62      H      0.706610000000     0.894400000000     0.087990000000     0.0806443  
H63      H      0.616400000000     0.842780000000     0.934750000000     0.0272393  
H64      H      0.707330000000     0.911900000000     0.183070000000     0.151733   
H65      H      0.739070000000     0.660480000000     0.193820000000     0.0281621  
H66      H      0.748660000000     0.817600000000     0.281380000000     0.0292961  
H67      H      0.790810000000     0.776260000000     0.188240000000     0.0520959  
H68      H      0.774970000000     0.790750000000     0.253220000000     0.0585946  
H69      H      0.711790000000     0.685860000000     0.225090000000     0.0510863  
H70      H      0.685400000000     0.712900000000     0.211550000000     0.0808125  
H71      H      0.818060000000     0.750140000000     0.159960000000     0.0298442  
H72      H      0.644380000000     0.723780000000     0.270490000000     0.154976   
H73      H      0.584860000000     0.998890000000     0.411990000000     0.0279154  
H74      H      0.575930000000     0.841900000000     0.325980000000     0.0246851  
H75      H      0.533920000000     0.883200000000     0.419480000000     0.049857   
H76      H      0.549550000000     0.868660000000     0.354130000000     0.0559326  
H77      H      0.612360000000     0.973600000000     0.381190000000     0.0501028  
H78      H      0.639070000000     0.946800000000     0.395300000000     0.0797889  
H79      H      0.506440000000     0.909200000000     0.447370000000     0.0272089  
H80      H      0.680100000000     0.935900000000     0.336340000000     0.153432   
H81      H      0.043650000000     0.519170000000     0.611030000000     0.0283191  
H82      H      0.945650000000     0.476260000000     0.829790000000     0.0255035  
H83      H      0.952320000000     0.517770000000     0.684210000000     0.050664   
H84      H      0.947320000000     0.481630000000     0.748060000000     0.0573928  
H85      H      0.043110000000     0.524020000000     0.693130000000     0.051039   
H86      H      0.042900000000     0.558100000000     0.756830000000     0.080464   
H87      H      0.953510000000     0.512960000000     0.602060000000     0.0274895  
H88      H      0.059490000000     0.546190000000     0.845510000000     0.152765   
H89      H      0.941930000000     0.465520000000     0.331520000000     0.0281582  
H90      H      0.039190000000     0.509850000000     0.111580000000     0.027395   
H91      H      0.034210000000     0.469840000000     0.256910000000     0.050813   
H92      H      0.037860000000     0.504750000000     0.193220000000     0.0587397  
H93      H      0.941940000000     0.460280000000     0.249430000000     0.0538005  
H94      H      0.942770000000     0.427180000000     0.185220000000     0.08072    
H95      H      0.033590000000     0.475160000000     0.338970000000     0.0291084  
H96      H      0.942060000000     0.410060000000     0.089950000000     0.154918   
H97      H      0.916700000000     0.663340000000     0.079210000000     0.0285979  
H98      H      0.906790000000     0.506570000000     0.990160000000     0.0266382  
H99      H      0.864620000000     0.547510000000     0.083810000000     0.0509341  
H100     H      0.880670000000     0.533670000000     0.018030000000     0.0570418  
H101     H      0.944060000000     0.637930000000     0.048220000000     0.0511463  
H102     H      0.970090000000     0.610330000000     0.062660000000     0.0808116  
H103     H      0.837350000000     0.573630000000     0.111980000000     0.0276237  
H104     H      0.011480000000     0.599310000000     0.004580000000     0.155665   
H105     H      0.364920000000     0.139160000000     0.006750000000     0.0288188  
H106     H      0.282860000000     0.106150000000     0.766210000000     0.02561    
H107     H      0.277610000000     0.131460000000     0.913450000000     0.0520712  
H108     H      0.278610000000     0.098500000000     0.847900000000     0.058042   
H109     H      0.367340000000     0.135630000000     0.924610000000     0.0539556  
H110     H      0.374320000000     0.173750000000     0.862910000000     0.0822281  
H111     H      0.275820000000     0.135040000000     0.995680000000     0.0301678  
H112     H      0.383260000000     0.205670000000     0.778330000000     0.159249   
H113     H      0.284510000000     0.177670000000     0.268860000000     0.0287076  
H114     H      0.281320000000     0.144230000000     0.497050000000     0.0253692  
H115     H      0.377070000000     0.194370000000     0.357730000000     0.0508662  
H116     H      0.281720000000     0.148790000000     0.415310000000     0.0576712  
H117     H      0.284140000000     0.183240000000     0.350980000000     0.0522741  
H118     H      0.376020000000     0.227870000000     0.421260000000     0.0804803  
H119     H      0.376790000000     0.188780000000     0.275740000000     0.0279354  
H120     H      0.394640000000     0.217700000000     0.509650000000     0.152102   
H121     H      0.485650000000     0.085100000000     0.491500000000     0.0293632  
H122     H      0.328800000000     0.076660000000     0.577130000000     0.0249237  
H123     H      0.379620000000     0.021000000000     0.557530000000     0.0508545  
H124     H      0.353560000000     0.049170000000     0.544940000000     0.0563557  
H125     H      0.458740000000     0.111300000000     0.520700000000     0.0508603  
H126     H      0.444050000000     0.124630000000     0.588290000000     0.0818678  
H127     H      0.406660000000     0.995470000000     0.525580000000     0.0280289  
H128     H      0.429850000000     0.174380000000     0.597940000000     0.154037   
H129     H      0.067750000000     0.322610000000     0.858750000000     0.0286885  
H130     H      0.077760000000     0.478770000000     0.950540000000     0.0247968  
H131     H      0.118910000000     0.438390000000     0.854040000000     0.0496412  
H132     H      0.103670000000     0.451760000000     0.921400000000     0.0561127  
H133     H      0.040330000000     0.347720000000     0.890800000000     0.0524206  
H134     H      0.013990000000     0.375400000000     0.877120000000     0.0801054  
H135     H      0.146190000000     0.412620000000     0.824650000000     0.0274112  
H136     H      0.977680000000     0.406600000000     0.877820000000     0.152898   
H137     H      0.247010000000     0.328460000000     0.745450000000     0.0282039  
H138     H      0.241480000000     0.173350000000     0.657780000000     0.0252262  
H139     H      0.197490000000     0.212850000000     0.751460000000     0.0506461  
H140     H      0.213950000000     0.198980000000     0.686100000000     0.0569606  
H141     H      0.275110000000     0.304010000000     0.714130000000     0.0511304  
H142     H      0.302470000000     0.278070000000     0.728450000000     0.0806409  
H143     H      0.169330000000     0.238060000000     0.779910000000     0.0281504  
H144     H      0.344500000000     0.268760000000     0.669560000000     0.156424   
H145     H      0.434560000000     0.475120000000     0.838560000000     0.0281754  
H146     H      0.481450000000     0.439400000000     0.598300000000     0.0262319  
H147     H      0.511840000000     0.463560000000     0.745220000000     0.0523799  
H148     H      0.478100000000     0.432100000000     0.679920000000     0.0582117  
H149     H      0.428680000000     0.472090000000     0.756450000000     0.0527028  
H150     H      0.459620000000     0.508750000000     0.694240000000     0.0817032  
H151     H      0.517050000000     0.466530000000     0.827480000000     0.0299926  
H152     H      0.482860000000     0.540040000000     0.609160000000     0.159309   
H153     H      0.472290000000     0.521700000000     0.108010000000     0.0278038  
H154     H      0.521540000000     0.475810000000     0.328910000000     0.0255537  
H155     H      0.559420000000     0.515670000000     0.182390000000     0.0517871  
H156     H      0.526280000000     0.480510000000     0.247090000000     0.0586895  
H157     H      0.477750000000     0.526970000000     0.189960000000     0.0511964  
H158     H      0.513610000000     0.561190000000     0.252720000000     0.0807182  
H159     H      0.553440000000     0.510600000000     0.100110000000     0.0303473  
H160     H      0.484560000000     0.551700000000     0.340610000000     0.152833   
H161     H      0.844490000000     0.218870000000     0.005340000000     0.0315315  
H162     H      0.806760000000     0.187690000000     0.777230000000     0.0259233  
H163     H      0.855690000000     0.140330000000     0.914660000000     0.0542246  
H164     H      0.811490000000     0.191240000000     0.859180000000     0.059416   
H165     H      0.848560000000     0.224330000000     0.923100000000     0.0529277  
H166     H      0.891030000000     0.176750000000     0.851600000000     0.08194    
H167     H      0.851320000000     0.135290000000     0.996920000000     0.0286985  
H168     H      0.908610000000     0.194410000000     0.756850000000     0.156862   
H169     H      0.801830000000     0.186260000000     0.277730000000     0.027841   
H170     H      0.769780000000     0.149260000000     0.506820000000     0.0246574  
H171     H      0.799790000000     0.094250000000     0.349540000000     0.0517479  
H172     H      0.763020000000     0.146400000000     0.424890000000     0.0568843  
H173     H      0.797390000000     0.180740000000     0.359980000000     0.0513318  
H174     H      0.837830000000     0.125020000000     0.411680000000     0.082708   
H175     H      0.804180000000     0.100340000000     0.267520000000     0.0284172  
H176     H      0.837290000000     0.103060000000     0.504220000000     0.152304   
H177     H      0.099110000000     0.277550000000     0.672400000000     0.0291444  
H178     H      0.139610000000     0.360530000000     0.432400000000     0.0251777  
H179     H      0.171000000000     0.368520000000     0.577730000000     0.0510708  
H180     H      0.134630000000     0.362750000000     0.513850000000     0.05728    
H181     H      0.093320000000     0.273580000000     0.590040000000     0.0539712  
H182     H      0.127100000000     0.271810000000     0.526630000000     0.0818038  
H183     H      0.176270000000     0.371770000000     0.659780000000     0.0278468  
H184     H      0.153840000000     0.268420000000     0.441740000000     0.15774    
H185     H      0.139780000000     0.277590000000     0.943440000000     0.0285352  
H186     H      0.184820000000     0.373240000000     0.163780000000     0.0248538  
H187     H      0.222710000000     0.375110000000     0.014700000000     0.0501747  
H188     H      0.188720000000     0.373980000000     0.081650000000     0.0571497  
H189     H      0.146550000000     0.279290000000     0.025210000000     0.053711   
H190     H      0.186080000000     0.284970000000     0.085410000000     0.0810447  
H191     H      0.215560000000     0.372660000000     0.932470000000     0.0273017  
H192     H      0.204900000000     0.286060000000     0.179930000000     0.152809   
H193     H      0.913920000000     0.159050000000     0.189330000000     0.0285504  
H194     H      0.063650000000     0.315270000000     0.278170000000     0.024664   
H195     H      0.976330000000     0.274930000000     0.192880000000     0.050499   
H196     H      0.010120000000     0.289740000000     0.251580000000     0.0566007  
H197     H      0.966430000000     0.183700000000     0.220140000000     0.0533336  
H198     H      0.018530000000     0.209860000000     0.209420000000     0.0808863  
H199     H      0.922610000000     0.249170000000     0.166290000000     0.0280369  
H200     H      0.085730000000     0.238470000000     0.208800000000     0.156545   
H201     H      0.399660000000     0.403760000000     0.439750000000     0.0287872  
H202     H      0.245970000000     0.407600000000     0.362430000000     0.0237548  
H203     H      0.349810000000     0.463540000000     0.384950000000     0.049518   
H204     H      0.297900000000     0.435020000000     0.394400000000     0.0560733  
H205     H      0.345980000000     0.375030000000     0.412790000000     0.0526662  
H206     H      0.312250000000     0.358390000000     0.354000000000     0.0799997  
H207     H      0.402090000000     0.491010000000     0.416150000000     0.0278464  
H208     H      0.262250000000     0.328440000000     0.288400000000     0.150603   
H209     H      0.521630000000     0.048080000000     0.829210000000     0.0312373  
H210     H      0.476120000000     0.950050000000     0.610020000000     0.0250379  
H211     H      0.515220000000     0.954380000000     0.756350000000     0.0500993  
H212     H      0.480590000000     0.951480000000     0.691830000000     0.0577628  
H213     H      0.526960000000     0.047410000000     0.747170000000     0.0551723  
H214     H      0.560460000000     0.045200000000     0.683970000000     0.0808291  
H215     H      0.509970000000     0.955700000000     0.838350000000     0.0275728  
H216     H      0.578060000000     0.044820000000     0.589210000000     0.152476   
H217     H      0.436800000000     0.950690000000     0.338980000000     0.0274056  
H218     H      0.466270000000     0.947800000000     0.108660000000     0.0248515  
H219     H      0.507120000000     0.043350000000     0.245910000000     0.0534087  
H220     H      0.462540000000     0.948000000000     0.190640000000     0.0571959  
H221     H      0.429440000000     0.948330000000     0.256860000000     0.0503051  
H222     H      0.468700000000     0.038600000000     0.184750000000     0.080396   
H223     H      0.514030000000     0.044980000000     0.327680000000     0.0281953  
H224     H      0.450290000000     0.037500000000     0.089970000000     0.152309   
H225     H      0.581500000000     0.083770000000     0.024590000000     0.0306941  
H226     H      0.728800000000     0.072130000000     0.112330000000     0.0240355  
H227     H      0.641170000000     0.027350000000     0.026870000000     0.0498899  
H228     H      0.675320000000     0.045260000000     0.085270000000     0.0559638  
H229     H      0.633600000000     0.109780000000     0.056390000000     0.0509579  
H230     H      0.685410000000     0.134740000000     0.046010000000     0.0804752  
H231     H      0.587560000000     0.001080000000     0.999360000000     0.0268958  
H232     H      0.736630000000     0.175680000000     0.105170000000     0.154514   
H233     H      0.136340000000     0.853610000000     0.446500000000     0.0279865  
H234     H      0.171270000000     0.883440000000     0.674910000000     0.024689   
H235     H      0.224970000000     0.849150000000     0.518590000000     0.0505946  
H236     H      0.175370000000     0.890180000000     0.593070000000     0.0566614  
H237     H      0.141860000000     0.857880000000     0.528530000000     0.0510789  
H238     H      0.194580000000     0.813820000000     0.582000000000     0.0813256  
H239     H      0.218730000000     0.844770000000     0.436430000000     0.0279467  
H240     H      0.215250000000     0.813960000000     0.675230000000     0.151343   
H241     H      0.131470000000     0.848550000000     0.946680000000     0.030532   
H242     H      0.101640000000     0.813200000000     0.174900000000     0.0254639  
H243     H      0.136950000000     0.760450000000     0.018530000000     0.0516572  
H244     H      0.094950000000     0.809060000000     0.093070000000     0.0579181  
H245     H      0.127190000000     0.842910000000     0.028700000000     0.0524804  
H246     H      0.172140000000     0.791050000000     0.082050000000     0.0816412  
H247     H      0.141330000000     0.766800000000     0.936380000000     0.0289974  
H248     H      0.172250000000     0.770520000000     0.175300000000     0.151709   
H249     H      0.245730000000     0.914750000000     0.862210000000     0.0286751  
H250     H      0.395540000000     0.908650000000     0.947810000000     0.0243739  
H251     H      0.309960000000     0.863070000000     0.857230000000     0.0500736  
H252     H      0.342040000000     0.880790000000     0.920700000000     0.0563749  
H253     H      0.298560000000     0.942420000000     0.892220000000     0.0511802  
H254     H      0.351230000000     0.968710000000     0.875530000000     0.0812972  
H255     H      0.256180000000     0.835320000000     0.830210000000     0.0278361  
H256     H      0.403020000000     0.011600000000     0.932560000000     0.154228   
H257     H      0.847560000000     0.710780000000     0.995340000000     0.029118   
H258     H      0.798510000000     0.612690000000     0.776410000000     0.0252517  
H259     H      0.762150000000     0.615260000000     0.923340000000     0.0507443  
H260     H      0.794500000000     0.613470000000     0.858250000000     0.0575353  
H261     H      0.841540000000     0.709410000000     0.913410000000     0.0542974  
H262     H      0.805290000000     0.706010000000     0.850730000000     0.0812586  
H263     H      0.768720000000     0.617330000000     0.005550000000     0.0279172  
H264     H      0.787950000000     0.705510000000     0.755630000000     0.153174   
H265     H      0.856020000000     0.710290000000     0.495740000000     0.0289678  
H266     H      0.807060000000     0.613230000000     0.276130000000     0.0251225  
H267     H      0.845610000000     0.614860000000     0.422980000000     0.0500202  
H268     H      0.811870000000     0.613580000000     0.357900000000     0.0572267  
H269     H      0.861030000000     0.709310000000     0.413880000000     0.0539134  
H270     H      0.893710000000     0.706070000000     0.351130000000     0.0806243  
H271     H      0.840700000000     0.616530000000     0.505200000000     0.0273278  
H272     H      0.910450000000     0.706060000000     0.255850000000     0.152783   
H273     H      0.739570000000     0.663200000000     0.577960000000     0.028744   
H274     H      0.591490000000     0.507500000000     0.488860000000     0.0249031  
H275     H      0.674820000000     0.547440000000     0.582780000000     0.0503171  
H276     H      0.644680000000     0.533640000000     0.517120000000     0.0563333  
H277     H      0.687100000000     0.638280000000     0.546310000000     0.0511957  
H278     H      0.633810000000     0.611610000000     0.561020000000     0.0810189  
H279     H      0.728090000000     0.573130000000     0.611560000000     0.0274258  
H280     H      0.582160000000     0.601900000000     0.502520000000     0.156102   
H281     H      0.924050000000     0.748850000000     0.659990000000     0.0296293  
H282     H      0.072130000000     0.739710000000     0.745190000000     0.0274864  
H283     H      0.965800000000     0.684430000000     0.725640000000     0.0511742  
H284     H      0.019890000000     0.712430000000     0.713010000000     0.0573731  
H285     H      0.977120000000     0.774890000000     0.689210000000     0.0514001  
H286     H      0.005180000000     0.788080000000     0.756610000000     0.0811608  
H287     H      0.913290000000     0.659060000000     0.693560000000     0.0279316  
H288     H      0.069180000000     0.837670000000     0.766200000000     0.15445    
N1       N      0.702580000000     0.915560000000     0.765230000000    -0.224944   
N2       N      0.780030000000     0.071020000000     0.674360000000    -0.196135   
N3       N      0.873220000000     0.248370000000     0.598310000000    -0.225376   
N4       N      0.950160000000     0.405110000000     0.510600000000    -0.196985   
N5       N      0.036710000000     0.582100000000     0.432340000000    -0.224856   
N6       N      0.113420000000     0.738420000000     0.344300000000    -0.196624   
N7       N      0.539900000000     0.581340000000     0.928160000000    -0.22482    
N8       N      0.616510000000     0.738310000000     0.842430000000    -0.196657   
N9       N      0.281080000000     0.071320000000     0.176820000000    -0.224803   
N10      N      0.204490000000     0.915450000000     0.266680000000    -0.196411   
N11      N      0.449690000000     0.404960000000     0.010010000000    -0.225359   
N12      N      0.369040000000     0.247910000000     0.096500000000    -0.196748   
N13      N      0.664720000000     0.811160000000     0.433490000000    -0.224255   
N14      N      0.656450000000     0.805850000000     0.673840000000    -0.19626    
N15      N      0.659810000000     0.848630000000     0.173800000000    -0.224027   
N16      N      0.662620000000     0.848060000000     0.933190000000    -0.196607   
N17      N      0.701930000000     0.780930000000     0.264080000000    -0.2237     
N18      N      0.780710000000     0.703390000000     0.175020000000    -0.196104   
N19      N      0.622660000000     0.878690000000     0.343080000000    -0.224731   
N20      N      0.543470000000     0.955940000000     0.431470000000    -0.196619   
N21      N      0.993380000000     0.513220000000     0.841040000000    -0.224545   
N22      N      0.998340000000     0.515020000000     0.600540000000    -0.19659    
N23      N      0.991690000000     0.472260000000     0.100620000000    -0.223888   
N24      N      0.988030000000     0.471440000000     0.341250000000    -0.196408   
N25      N      0.953450000000     0.542580000000     0.009130000000    -0.223939   
N26      N      0.874870000000     0.620400000000     0.097420000000    -0.196528   
N27      N      0.330510000000     0.144880000000     0.767150000000    -0.223922   
N28      N      0.320570000000     0.138150000000     0.007250000000    -0.196151   
N29      N      0.328560000000     0.182580000000     0.506940000000    -0.224552   
N30      N      0.330380000000     0.182130000000     0.266290000000    -0.196642   
N31      N      0.371850000000     0.117070000000     0.599180000000    -0.22428    
N32      N      0.448340000000     0.038370000000     0.506800000000    -0.196128   
N33      N      0.031010000000     0.443000000000     0.931530000000    -0.224456   
N34      N      0.109160000000     0.365720000000     0.839900000000    -0.196495   
N35      N      0.287760000000     0.210760000000     0.675430000000    -0.224469   
N36      N      0.205960000000     0.285100000000     0.764580000000    -0.19659    
N37      N      0.473420000000     0.478730000000     0.598750000000    -0.22419    
N38      N      0.476670000000     0.471810000000     0.839070000000    -0.196344   
N39      N      0.513880000000     0.514990000000     0.338520000000    -0.224561   
N40      N      0.512070000000     0.515130000000     0.098060000000    -0.196357   
N41      N      0.845520000000     0.179490000000     0.766650000000    -0.224495   
N42      N      0.846970000000     0.176330000000     0.007150000000    -0.196262   
N43      N      0.808110000000     0.139710000000     0.506670000000    -0.225317   
N44      N      0.804100000000     0.144150000000     0.266630000000    -0.196848   
N45      N      0.137350000000     0.315530000000     0.431970000000    -0.224211   
N46      N      0.138510000000     0.324700000000     0.672150000000    -0.196723   
N47      N      0.182220000000     0.328430000000     0.172340000000    -0.224659   
N48      N      0.176830000000     0.325140000000     0.931950000000    -0.196806   
N49      N      0.071600000000     0.277200000000     0.261350000000    -0.224601   
N50      N      0.914310000000     0.202250000000     0.175850000000    -0.196936   
N51      N      0.248190000000     0.366700000000     0.342070000000    -0.225614   
N52      N      0.404810000000     0.449450000000     0.429990000000    -0.196658   
N53      N      0.514980000000     0.996860000000     0.599140000000    -0.22445    
N54      N      0.514740000000     0.001700000000     0.839790000000    -0.196102   
N55      N      0.470580000000     0.993290000000     0.098920000000    -0.224607   
N56      N      0.476300000000     0.997780000000     0.339340000000    -0.196759   
N57      N      0.737440000000     0.118640000000     0.097280000000    -0.225659   
N58      N      0.580640000000     0.040490000000     0.009770000000    -0.196665   
N59      N      0.179710000000     0.844410000000     0.675900000000    -0.224832   
N60      N      0.176690000000     0.848150000000     0.435430000000    -0.196603   
N61      N      0.141100000000     0.805390000000     0.175920000000    -0.224771   
N62      N      0.137430000000     0.808530000000     0.935510000000    -0.196035   
N63      N      0.404140000000     0.954650000000     0.929000000000    -0.225044   
N64      N      0.246950000000     0.872920000000     0.844230000000    -0.196887   
N65      N      0.805130000000     0.659040000000     0.765830000000    -0.224337   
N66      N      0.808990000000     0.663950000000     0.006480000000    -0.19636    
N67      N      0.846820000000     0.659600000000     0.265910000000    -0.224488   
N68      N      0.847360000000     0.663260000000     0.506490000000    -0.196565   
N69      N      0.581930000000     0.544340000000     0.507300000000    -0.224807   
N70      N      0.737850000000     0.620030000000     0.596700000000    -0.19687    
N71      N      0.069650000000     0.780210000000     0.767290000000    -0.224727   
N72      N      0.914600000000     0.702060000000     0.675030000000    -0.196508   
Ni1      Ni     0.824190000000     0.635920000000     0.639880000000     0.999879   
Ni2      Ni     0.828200000000     0.686060000000     0.632130000000     1.01384    
Ni3      Ni     0.159910000000     0.803070000000     0.802350000000     1.00775    
Ni4      Ni     0.156860000000     0.849750000000     0.809220000000     1.0095     
Ni5      Ni     0.491410000000     0.972780000000     0.972300000000     0.999506   
Ni6      Ni     0.493700000000     0.022190000000     0.966050000000     1.01655    
Ni7      Ni     0.159590000000     0.297560000000     0.304310000000     1.02003    
Ni8      Ni     0.160020000000     0.346130000000     0.300020000000     1.00242    
Ni9      Ni     0.825530000000     0.136080000000     0.134340000000     1.00678    
Ni10     Ni     0.826130000000     0.184770000000     0.139620000000     1.0094     
Ni11     Ni     0.495250000000     0.473680000000     0.465100000000     1.00268    
Ni12     Ni     0.491340000000     0.519850000000     0.471990000000     1.01582    
Ni13     Ni     0.180210000000     0.350480000000     0.797800000000     1.00512    
Ni14     Ni     0.134620000000     0.300030000000     0.806590000000     1.00468    
Ni15     Ni     0.354600000000     0.186940000000     0.641250000000     1.01879    
Ni16     Ni     0.304750000000     0.140740000000     0.632890000000     1.00072    
Ni17     Ni     0.017740000000     0.515080000000     0.975560000000     1.00941    
Ni18     Ni     0.966890000000     0.470410000000     0.966160000000     1.0101     
Ni19     Ni     0.687590000000     0.852560000000     0.307110000000     1.01425    
Ni20     Ni     0.637040000000     0.807100000000     0.300110000000     1.00496    
Ni21     Ni     0.850900000000     0.686890000000     0.132240000000     1.00873    
Ni22     Ni     0.804640000000     0.636890000000     0.140000000000     1.00171    
Ni23     Ni     0.518800000000     0.022190000000     0.464600000000     1.0093     
Ni24     Ni     0.472860000000     0.972060000000     0.473360000000     1.00085    
Ni25     Ni     0.300550000000     0.159090000000     0.133960000000     1.00386    
Ni26     Ni     0.349590000000     0.160450000000     0.139740000000     1.00813    
Ni27     Ni     0.470770000000     0.494130000000     0.971800000000     1.00103    
Ni28     Ni     0.517970000000     0.491910000000     0.965550000000     1.01483    
Ni29     Ni     0.135460000000     0.828230000000     0.309110000000     1.00286    
Ni30     Ni     0.182510000000     0.825740000000     0.302350000000     1.00936    
Ni31     Ni     0.968690000000     0.492470000000     0.468250000000     1.00395    
Ni32     Ni     0.017970000000     0.494270000000     0.473500000000     1.00747    
Ni33     Ni     0.803560000000     0.161400000000     0.640500000000     1.00374    
Ni34     Ni     0.850010000000     0.158010000000     0.632690000000     1.01758    
Ni35     Ni     0.634600000000     0.825540000000     0.799950000000     0.998589   
Ni36     Ni     0.684130000000     0.828050000000     0.807170000000     1.01421    
O1       O      0.835820000000     0.639060000000     0.576780000000    -0.447835   
O2       O      0.812710000000     0.636080000000     0.702230000000    -0.451175   
O3       O      0.780910000000     0.617570000000     0.622290000000    -0.450157   
O4       O      0.867730000000     0.657540000000     0.657370000000    -0.448522   
O5       O      0.871400000000     0.704380000000     0.649870000000    -0.44833    
O6       O      0.784740000000     0.664450000000     0.614450000000    -0.450076   
O7       O      0.816420000000     0.682850000000     0.695040000000    -0.436897   
O8       O      0.839830000000     0.686080000000     0.569980000000    -0.451286   
O9       O      0.171560000000     0.814150000000     0.740050000000    -0.437193   
O10      O      0.148170000000     0.795070000000     0.865360000000    -0.448238   
O11      O      0.116340000000     0.781840000000     0.784790000000    -0.448363   
O12      O      0.203290000000     0.827430000000     0.819930000000    -0.449009   
O13      O      0.200350000000     0.871050000000     0.826440000000    -0.450801   
O14      O      0.113560000000     0.825430000000     0.792010000000    -0.442797   
O15      O      0.145430000000     0.838810000000     0.871680000000    -0.447107   
O16      O      0.168410000000     0.857590000000     0.746050000000    -0.451813   
O17      O      0.479940000000     0.972020000000     0.034890000000    -0.451906   
O18      O      0.502920000000     0.976720000000     0.909300000000    -0.449338   
O19      O      0.535130000000     0.995450000000     0.989070000000    -0.44784    
O20      O      0.447910000000     0.953450000000     0.955040000000    -0.45128    
O21      O      0.450650000000     0.999740000000     0.946850000000    -0.440729   
O22      O      0.536530000000     0.041440000000     0.985790000000    -0.449118   
O23      O      0.506590000000     0.023660000000     0.903980000000    -0.44583    
O24      O      0.480780000000     0.017510000000     0.028520000000    -0.437935   
O25      O      0.147210000000     0.295250000000     0.366920000000    -0.435932   
O26      O      0.171890000000     0.303040000000     0.241700000000    -0.436485   
O27      O      0.202990000000     0.321030000000     0.322080000000    -0.436656   
O28      O      0.116400000000     0.277280000000     0.285550000000    -0.431652   
O29      O      0.116630000000     0.322630000000     0.282140000000    -0.45135    
O30      O      0.203210000000     0.366390000000     0.318780000000    -0.45329    
O31      O      0.172420000000     0.348470000000     0.237450000000    -0.451826   
O32      O      0.147690000000     0.340650000000     0.362610000000    -0.45336    
O33      O      0.837620000000     0.146270000000     0.071720000000    -0.448772   
O34      O      0.813560000000     0.129120000000     0.197030000000    -0.451739   
O35      O      0.782080000000     0.117070000000     0.117040000000    -0.451834   
O36      O      0.868870000000     0.158180000000     0.152560000000    -0.449519   
O37      O      0.869620000000     0.203830000000     0.156660000000    -0.449343   
O38      O      0.782810000000     0.162630000000     0.121580000000    -0.441801   
O39      O      0.814160000000     0.174640000000     0.202320000000    -0.449711   
O40      O      0.837860000000     0.191620000000     0.076800000000    -0.447282   
O41      O      0.505850000000     0.484520000000     0.402340000000    -0.452401   
O42      O      0.484590000000     0.465960000000     0.528340000000    -0.451568   
O43      O      0.451340000000     0.451510000000     0.449380000000    -0.447481   
O44      O      0.538810000000     0.498860000000     0.481400000000    -0.451244   
O45      O      0.534640000000     0.541580000000     0.490160000000    -0.438694   
O46      O      0.448350000000     0.495230000000     0.453260000000    -0.449265   
O47      O      0.479420000000     0.508250000000     0.534270000000    -0.437132   
O48      O      0.503470000000     0.528330000000     0.409270000000    -0.439294   
O49      O      0.168430000000     0.349280000000     0.735370000000    -0.450501   
O50      O      0.188940000000     0.348410000000     0.861070000000    -0.449026   
O51      O      0.202680000000     0.329220000000     0.781360000000    -0.44924    
O52      O      0.154790000000     0.368430000000     0.814400000000    -0.450717   
O53      O      0.112160000000     0.321360000000     0.823190000000    -0.447322   
O54      O      0.160090000000     0.282080000000     0.789830000000    -0.448941   
O55      O      0.146470000000     0.301120000000     0.868900000000    -0.450807   
O56      O      0.125850000000     0.302090000000     0.743390000000    -0.44857    
O57      O      0.351920000000     0.195450000000     0.578090000000    -0.439128   
O58      O      0.354080000000     0.175330000000     0.703600000000    -0.435749   
O59      O      0.373380000000     0.162360000000     0.624320000000    -0.440214   
O60      O      0.332590000000     0.208550000000     0.658110000000    -0.438038   
O61      O      0.285980000000     0.165440000000     0.649920000000    -0.451045   
O62      O      0.326890000000     0.119120000000     0.616030000000    -0.449657   
O63      O      0.307400000000     0.132240000000     0.696050000000    -0.450368   
O64      O      0.305270000000     0.152320000000     0.570530000000    -0.453414   
O65      O      0.016020000000     0.524580000000     0.912630000000    -0.439453   
O66      O      0.016250000000     0.502640000000     0.037640000000    -0.450533   
O67      O      0.034810000000     0.488980000000     0.958080000000    -0.452804   
O68      O      0.997290000000     0.538240000000     0.992740000000    -0.434978   
O69      O      0.949800000000     0.496520000000     0.983370000000    -0.449178   
O70      O      0.987290000000     0.447220000000     0.949100000000    -0.436594   
O71      O      0.968610000000     0.460990000000     0.029240000000    -0.434063   
O72      O      0.968480000000     0.482830000000     0.903940000000    -0.452859   
O73      O      0.684210000000     0.861050000000     0.244200000000    -0.436769   
O74      O      0.687730000000     0.841090000000     0.369330000000    -0.438653   
O75      O      0.705150000000     0.826950000000     0.289210000000    -0.446169   
O76      O      0.666710000000     0.875170000000     0.324960000000    -0.439114   
O77      O      0.619490000000     0.832710000000     0.317900000000    -0.452631   
O78      O      0.657910000000     0.784470000000     0.282360000000    -0.436877   
O79      O      0.640410000000     0.798690000000     0.363160000000    -0.450577   
O80      O      0.636950000000     0.818560000000     0.237780000000    -0.449222   
O81      O      0.859390000000     0.683630000000     0.195230000000    -0.436143   
O82      O      0.839340000000     0.686900000000     0.069990000000    -0.449981   
O83      O      0.826160000000     0.705470000000     0.149870000000    -0.446614   
O84      O      0.872620000000     0.665050000000     0.114720000000    -0.448571   
O85      O      0.829400000000     0.618320000000     0.122490000000    -0.449642   
O86      O      0.782910000000     0.658750000000     0.157460000000    -0.447874   
O87      O      0.796180000000     0.640030000000     0.076920000000    -0.448144   
O88      O      0.816220000000     0.636960000000     0.202300000000    -0.452149   
O89      O      0.506970000000     0.021390000000     0.402320000000    -0.451024   
O90      O      0.527540000000     0.019810000000     0.527750000000    -0.436749   
O91      O      0.540810000000     0.000500000000     0.447790000000    -0.449133   
O92      O      0.493810000000     0.040570000000     0.481580000000    -0.447312   
O93      O      0.450800000000     0.993750000000     0.490020000000    -0.447686   
O94      O      0.497910000000     0.953650000000     0.456570000000    -0.44962    
O95      O      0.484650000000     0.973010000000     0.535750000000    -0.452068   
O96      O      0.464140000000     0.974370000000     0.410140000000    -0.448545   
O97      O      0.299460000000     0.147720000000     0.071190000000    -0.44538    
O98      O      0.304870000000     0.170490000000     0.197110000000    -0.449009   
O99      O      0.323720000000     0.202790000000     0.117420000000    -0.447545   
O100     O      0.280650000000     0.115570000000     0.150940000000    -0.43961    
O101     O      0.326540000000     0.117370000000     0.159000000000    -0.452243   
O102     O      0.369350000000     0.203350000000     0.119970000000    -0.450496   
O103     O      0.351550000000     0.173450000000     0.201760000000    -0.450495   
O104     O      0.344560000000     0.147510000000     0.077340000000    -0.449912   
O105     O      0.481530000000     0.505810000000     0.034200000000    -0.450471   
O106     O      0.463080000000     0.482480000000     0.908980000000    -0.450869   
O107     O      0.449910000000     0.450410000000     0.988930000000    -0.448897   
O108     O      0.494860000000     0.537620000000     0.954210000000    -0.449952   
O109     O      0.538510000000     0.534950000000     0.946650000000    -0.441683   
O110     O      0.494480000000     0.449100000000     0.985000000000    -0.443945   
O111     O      0.506630000000     0.479300000000     0.903310000000    -0.446219   
O112     O      0.526120000000     0.504590000000     0.028200000000    -0.446261   
O113     O      0.146370000000     0.839850000000     0.371530000000    -0.449781   
O114     O      0.127700000000     0.816530000000     0.246010000000    -0.45068    
O115     O      0.114540000000     0.784720000000     0.326570000000    -0.448993   
O116     O      0.159470000000     0.871590000000     0.291610000000    -0.449278   
O117     O      0.203400000000     0.869210000000     0.284670000000    -0.447286   
O118     O      0.158540000000     0.782420000000     0.320000000000    -0.449452   
O119     O      0.171490000000     0.813960000000     0.240070000000    -0.437076   
O120     O      0.190400000000     0.837580000000     0.365350000000    -0.449251   
O121     O      0.973750000000     0.505130000000     0.530820000000    -0.45034    
O122     O      0.966760000000     0.479800000000     0.406000000000    -0.449365   
O123     O      0.949260000000     0.449470000000     0.487610000000    -0.450179   
O124     O      0.991420000000     0.535680000000     0.449410000000    -0.451278   
O125     O      0.037520000000     0.537810000000     0.456840000000    -0.435917   
O126     O      0.995140000000     0.450550000000     0.489800000000    -0.448661   
O127     O      0.013560000000     0.483020000000     0.410350000000    -0.448442   
O128     O      0.019160000000     0.505480000000     0.536310000000    -0.449376   
O129     O      0.794920000000     0.149660000000     0.577620000000    -0.452255   
O130     O      0.815430000000     0.173080000000     0.702840000000    -0.450751   
O131     O      0.827860000000     0.204490000000     0.622160000000    -0.453414   
O132     O      0.782150000000     0.117970000000     0.658190000000    -0.449596   
O133     O      0.825270000000     0.114410000000     0.648780000000    -0.446069   
O134     O      0.871730000000     0.201940000000     0.617190000000    -0.438892   
O135     O      0.858050000000     0.168540000000     0.695820000000    -0.436153   
O136     O      0.838870000000     0.147520000000     0.570100000000    -0.437926   
O137     O      0.638240000000     0.837120000000     0.863080000000    -0.448353   
O138     O      0.634150000000     0.814020000000     0.737530000000    -0.44925    
O139     O      0.615190000000     0.782110000000     0.817360000000    -0.44866    
O140     O      0.657320000000     0.869130000000     0.782640000000    -0.450554   
O141     O      0.703480000000     0.871340000000     0.789640000000    -0.437214   
O142     O      0.661540000000     0.784620000000     0.824700000000    -0.450244   
O143     O      0.680420000000     0.816290000000     0.744170000000    -0.447245   
O144     O      0.684690000000     0.839750000000     0.869450000000    -0.450486   
O145     O      0.753280000000     0.924310000000     0.789050000000    -0.291299   
O146     O      0.923810000000     0.254550000000     0.616200000000    -0.294844   
O147     O      0.087310000000     0.590980000000     0.456790000000    -0.292646   
O148     O      0.584960000000     0.577580000000     0.904680000000    -0.292948   
O149     O      0.230290000000     0.062760000000     0.153850000000    -0.293163   
O150     O      0.498410000000     0.407720000000     0.031190000000    -0.29471    
O151     O      0.718530000000     0.852570000000     0.442360000000    -0.292776   
O152     O      0.711470000000     0.894560000000     0.175640000000    -0.291412   
O153     O      0.652390000000     0.736370000000     0.242180000000    -0.292785   
O154     O      0.672170000000     0.923380000000     0.364720000000    -0.293902   
O155     O      0.046590000000     0.556610000000     0.844510000000    -0.292574   
O156     O      0.938980000000     0.428070000000     0.097400000000    -0.291945   
O157     O      0.002970000000     0.586500000000     0.032620000000    -0.29286    
O158     O      0.384320000000     0.185990000000     0.777210000000    -0.289337   
O159     O      0.381010000000     0.227330000000     0.508880000000    -0.292094   
O160     O      0.422880000000     0.158540000000     0.622730000000    -0.288592   
O161     O      0.981370000000     0.399430000000     0.907600000000    -0.291757   
O162     O      0.336670000000     0.256020000000     0.697770000000    -0.293547   
O163     O      0.461870000000     0.520680000000     0.608380000000    -0.293195   
O164     O      0.507740000000     0.560720000000     0.340190000000    -0.292516   
O165     O      0.891040000000     0.172980000000     0.763860000000    -0.291487   
O166     O      0.848570000000     0.125990000000     0.497810000000    -0.290836   
O167     O      0.131840000000     0.264210000000     0.440510000000    -0.290224   
O168     O      0.182660000000     0.279550000000     0.172950000000    -0.290986   
O169     O      0.074990000000     0.231900000000     0.238750000000    -0.288464   
O170     O      0.256630000000     0.324170000000     0.321100000000    -0.291449   
O171     O      0.560500000000     0.048750000000     0.596090000000    -0.292301   
O172     O      0.472300000000     0.043190000000     0.097030000000    -0.292767   
O173     O      0.741470000000     0.167970000000     0.076780000000    -0.294587   
O174     O      0.192410000000     0.803150000000     0.668240000000    -0.292073   
O175     O      0.182830000000     0.793340000000     0.168310000000    -0.292157   
O176     O      0.407710000000     0.003200000000     0.904750000000    -0.292005   
O177     O      0.809620000000     0.710170000000     0.763020000000    -0.291843   
O178     O      0.893470000000     0.710700000000     0.263470000000    -0.292514   
O179     O      0.577460000000     0.589000000000     0.530530000000    -0.293685   
O180     O      0.060300000000     0.821810000000     0.790960000000    -0.293313   


