data_structure

_audit_creation_method RASPA-1.0
_audit_creation_date 2023-5-23
_audit_author_name 'Poobodin Mano'

_cell_length_a    59.8107
_cell_length_b    59.8066
_cell_length_c    29.9655
_cell_angle_alpha 90
_cell_angle_beta  90
_cell_angle_gamma 90
_cell_volume      107189

_symmetry_cell_setting          triclinic
_symmetry_space_group_name_Hall 'P 1'
_symmetry_space_group_name_H-M  'P 1'
_symmetry_Int_Tables_number     1

_symmetry_equiv_pos_as_xyz 'x,y,z'

loop_
_atom_site_label
_atom_site_type_symbol
_atom_site_fract_x
_atom_site_fract_y
_atom_site_fract_z
_atom_site_charge
C1       C      0.368840000000     0.911630000000     0.996000000000     0.434846   
C2       C      0.368160000000     0.826130000000     0.995640000000     0.434711   
C3       C      0.368620000000     0.868830000000     0.081110000000     0.435005   
C4       C      0.368540000000     0.868960000000     0.910480000000     0.43528    
C5       C      0.368990000000     0.912170000000     0.495810000000     0.434618   
C6       C      0.369800000000     0.826670000000     0.495950000000     0.434292   
C7       C      0.369310000000     0.869440000000     0.581170000000     0.435096   
C8       C      0.369310000000     0.869360000000     0.410540000000     0.434951   
C9       C      0.368960000000     0.076650000000     0.998130000000     0.434997   
C10      C      0.369930000000     0.162140000000     0.999620000000     0.43429    
C11      C      0.369430000000     0.119730000000     0.913460000000     0.434861   
C12      C      0.369270000000     0.119100000000     0.084090000000     0.435149   
C13      C      0.368900000000     0.077200000000     0.498600000000     0.435204   
C14      C      0.368110000000     0.162710000000     0.498800000000     0.434565   
C15      C      0.368580000000     0.119940000000     0.413490000000     0.435076   
C16      C      0.368610000000     0.119940000000     0.584120000000     0.434813   
C17      C      0.912490000000     0.620410000000     0.992820000000     0.434653   
C18      C      0.827010000000     0.618890000000     0.995070000000     0.434745   
C19      C      0.870220000000     0.619720000000     0.079280000000     0.434661   
C20      C      0.869220000000     0.619620000000     0.908650000000     0.434908   
C21      C      0.911370000000     0.618960000000     0.494600000000     0.434805   
C22      C      0.825870000000     0.620660000000     0.493230000000     0.434483   
C23      C      0.868320000000     0.619730000000     0.579210000000     0.434936   
C24      C      0.868990000000     0.619840000000     0.408580000000     0.434963   
C25      C      0.077480000000     0.620310000000     0.991980000000     0.434577   
C26      C      0.162960000000     0.619430000000     0.992610000000     0.434444   
C27      C      0.120330000000     0.619750000000     0.906860000000     0.434526   
C28      C      0.120050000000     0.619910000000     0.077490000000     0.43488    
C29      C      0.076390000000     0.618910000000     0.492540000000     0.434778   
C30      C      0.161870000000     0.619830000000     0.491610000000     0.43449    
C31      C      0.118960000000     0.619450000000     0.406840000000     0.434413   
C32      C      0.119360000000     0.619360000000     0.577480000000     0.434366   
C33      C      0.617930000000     0.076790000000     0.987180000000     0.43463    
C34      C      0.620290000000     0.162280000000     0.987300000000     0.434455   
C35      C      0.619340000000     0.119520000000     0.072560000000     0.434884   
C36      C      0.618950000000     0.119570000000     0.901910000000     0.434621   
C37      C      0.620800000000     0.077260000000     0.487520000000     0.434973   
C38      C      0.618490000000     0.162750000000     0.486740000000     0.434569   
C39      C      0.619390000000     0.120170000000     0.572540000000     0.43508    
C40      C      0.619820000000     0.119800000000     0.401900000000     0.435075   
C41      C      0.617990000000     0.911800000000     0.992900000000     0.434717   
C42      C      0.620400000000     0.826300000000     0.992660000000     0.434543   
C43      C      0.619830000000     0.869070000000     0.907510000000     0.435058   
C44      C      0.618630000000     0.869070000000     0.078160000000     0.434886   
C45      C      0.620840000000     0.912280000000     0.492520000000     0.43504    
C46      C      0.618600000000     0.826800000000     0.493290000000     0.434485   
C47      C      0.619170000000     0.869310000000     0.407510000000     0.435065   
C48      C      0.620190000000     0.869750000000     0.578150000000     0.434617   
C49      C      0.370030000000     0.326110000000     0.997540000000     0.434545   
C50      C      0.370000000000     0.411600000000     0.993530000000     0.434767   
C51      C      0.327230000000     0.368930000000     0.993610000000     0.434457   
C52      C      0.412730000000     0.368720000000     0.997370000000     0.434733   
C53      C      0.367930000000     0.326710000000     0.494020000000     0.434518   
C54      C      0.368240000000     0.412200000000     0.490630000000     0.434842   
C55      C      0.325340000000     0.369550000000     0.492760000000     0.434656   
C56      C      0.410840000000     0.369430000000     0.491610000000     0.434817   
C57      C      0.369080000000     0.662120000000     0.993330000000     0.434716   
C58      C      0.370350000000     0.576630000000     0.991720000000     0.434962   
C59      C      0.327000000000     0.618800000000     0.993230000000     0.434416   
C60      C      0.412510000000     0.619920000000     0.991890000000     0.434267   
C61      C      0.369290000000     0.662660000000     0.494020000000     0.434516   
C62      C      0.368110000000     0.577190000000     0.491580000000     0.434931   
C63      C      0.325930000000     0.620460000000     0.491730000000     0.434436   
C64      C      0.411400000000     0.619390000000     0.494190000000     0.434618   
C65      C      0.663210000000     0.369490000000     0.993360000000     0.43483    
C66      C      0.577730000000     0.368640000000     0.996930000000     0.43485    
C67      C      0.621050000000     0.326280000000     0.992990000000     0.434315   
C68      C      0.619890000000     0.411780000000     0.996990000000     0.43477    
C69      C      0.661350000000     0.368980000000     0.494060000000     0.434594   
C70      C      0.575860000000     0.369950000000     0.491750000000     0.434973   
C71      C      0.617940000000     0.326740000000     0.490630000000     0.434615   
C72      C      0.619250000000     0.412230000000     0.495000000000     0.434659   
C73      C      0.621130000000     0.662260000000     0.993620000000     0.434107   
C74      C      0.619630000000     0.576780000000     0.996090000000     0.434511   
C75      C      0.663020000000     0.618720000000     0.995630000000     0.434448   
C76      C      0.577550000000     0.620250000000     0.993770000000     0.434359   
C77      C      0.618130000000     0.662800000000     0.495440000000     0.434463   
C78      C      0.619880000000     0.577290000000     0.496570000000     0.434568   
C79      C      0.661840000000     0.620980000000     0.494930000000     0.434608   
C80      C      0.576350000000     0.619140000000     0.496900000000     0.434821   
C81      C      0.077690000000     0.369510000000     0.992730000000     0.434501   
C82      C      0.163180000000     0.369510000000     0.991030000000     0.434193   
C83      C      0.120760000000     0.369630000000     0.077220000000     0.434266   
C84      C      0.120000000000     0.369410000000     0.906580000000     0.434387   
C85      C      0.075850000000     0.369480000000     0.491400000000     0.434959   
C86      C      0.161320000000     0.369480000000     0.492530000000     0.434357   
C87      C      0.118360000000     0.369390000000     0.577240000000     0.434735   
C88      C      0.118910000000     0.369560000000     0.406600000000     0.43438    
C89      C      0.912700000000     0.369380000000     0.994150000000     0.434739   
C90      C      0.827220000000     0.369420000000     0.992230000000     0.434676   
C91      C      0.870360000000     0.369320000000     0.907980000000     0.434358   
C92      C      0.869460000000     0.369470000000     0.078620000000     0.434241   
C93      C      0.910870000000     0.369500000000     0.492380000000     0.434364   
C94      C      0.825390000000     0.369330000000     0.494440000000     0.434159   
C95      C      0.867700000000     0.369530000000     0.408020000000     0.434062   
C96      C      0.868660000000     0.369320000000     0.578660000000     0.434695   
C97      C      0.864420000000     0.388710000000     0.694350000000    -0.0863929  
C98      C      0.869740000000     0.369260000000     0.718350000000     0.0347235  
C99      C      0.874670000000     0.349820000000     0.693980000000    -0.0862021  
C100     C      0.873910000000     0.350050000000     0.647390000000     0.0722909  
C101     C      0.864450000000     0.388500000000     0.647750000000     0.0725164  
C102     C      0.870070000000     0.369240000000     0.768280000000     0.0347481  
C103     C      0.875290000000     0.388690000000     0.792370000000    -0.0862655  
C104     C      0.875060000000     0.388490000000     0.838980000000     0.0723177  
C105     C      0.865650000000     0.350020000000     0.839140000000     0.0724313  
C106     C      0.865090000000     0.349780000000     0.792560000000    -0.0864134  
C107     C      0.863470000000     0.388990000000     0.193950000000    -0.0862449  
C108     C      0.868380000000     0.369560000000     0.218340000000     0.0346867  
C109     C      0.873670000000     0.350090000000     0.194350000000    -0.0861993  
C110     C      0.873640000000     0.350280000000     0.147740000000     0.0722777  
C111     C      0.864240000000     0.388750000000     0.147360000000     0.0722224  
C112     C      0.868040000000     0.369590000000     0.268290000000     0.0346558  
C113     C      0.872970000000     0.389060000000     0.292570000000    -0.0861191  
C114     C      0.872390000000     0.388840000000     0.339170000000     0.072171   
C115     C      0.863040000000     0.350360000000     0.339010000000     0.0723489  
C116     C      0.862830000000     0.350140000000     0.292400000000    -0.0863156  
C117     C      0.017970000000     0.350050000000     0.501370000000    -0.0861895  
C118     C      0.005860000000     0.369510000000     0.491250000000     0.034786   
C119     C      0.017990000000     0.388960000000     0.481080000000    -0.0862601  
C120     C      0.041330000000     0.388730000000     0.481880000000     0.0725136  
C121     C      0.041310000000     0.350250000000     0.500580000000     0.0724096  
C122     C      0.980850000000     0.369540000000     0.491380000000     0.0348575  
C123     C      0.968710000000     0.350100000000     0.481170000000    -0.0862855  
C124     C      0.945370000000     0.350320000000     0.482240000000     0.0724794  
C125     C      0.945420000000     0.388750000000     0.501280000000     0.0725436  
C126     C      0.968770000000     0.388980000000     0.501790000000    -0.0863491  
C127     C      0.124340000000     0.388790000000     0.790890000000    -0.0862886  
C128     C      0.119070000000     0.369330000000     0.766880000000     0.0346924  
C129     C      0.114140000000     0.349880000000     0.791240000000    -0.0862497  
C130     C      0.114860000000     0.350120000000     0.837830000000     0.0722791  
C131     C      0.124270000000     0.388590000000     0.837500000000     0.0723619  
C132     C      0.118750000000     0.369320000000     0.716950000000     0.0347414  
C133     C      0.113510000000     0.388770000000     0.692860000000    -0.0863295  
C134     C      0.113730000000     0.388560000000     0.646260000000     0.0724643  
C135     C      0.123150000000     0.350100000000     0.646070000000     0.0723428  
C136     C      0.123730000000     0.349870000000     0.692660000000    -0.0863184  
C137     C      0.125530000000     0.350240000000     0.192860000000    -0.086249   
C138     C      0.120280000000     0.369690000000     0.216940000000     0.0346658  
C139     C      0.115340000000     0.389150000000     0.192650000000    -0.0862028  
C140     C      0.115970000000     0.388930000000     0.146050000000     0.0722565  
C141     C      0.125370000000     0.350460000000     0.146250000000     0.0722918  
C142     C      0.119910000000     0.369660000000     0.266880000000     0.0347352  
C143     C      0.114610000000     0.350190000000     0.290870000000    -0.0863623  
C144     C      0.114650000000     0.350390000000     0.337480000000     0.0724051  
C145     C      0.124070000000     0.388850000000     0.337860000000     0.0722952  
C146     C      0.124820000000     0.389100000000     0.291270000000    -0.0863329  
C147     C      0.970560000000     0.388860000000     0.004480000000    -0.0861514  
C148     C      0.982690000000     0.369420000000     0.994280000000     0.0347232  
C149     C      0.970590000000     0.349940000000     0.984230000000    -0.0862576  
C150     C      0.947240000000     0.350140000000     0.985070000000     0.072381   
C151     C      0.947210000000     0.388620000000     0.003740000000     0.0725853  
C152     C      0.007710000000     0.369460000000     0.994010000000     0.0347722  
C153     C      0.019880000000     0.350040000000     0.004130000000    -0.0862487  
C154     C      0.043220000000     0.350280000000     0.002930000000     0.0725935  
C155     C      0.043110000000     0.388720000000     0.983910000000     0.0723692  
C156     C      0.019760000000     0.388920000000     0.983530000000    -0.0862672  
C157     C      0.719040000000     0.365510000000     0.534930000000    -0.0876899  
C158     C      0.731060000000     0.369010000000     0.495580000000     0.0348304  
C159     C      0.719440000000     0.372410000000     0.455760000000    -0.0879679  
C160     C      0.696100000000     0.372030000000     0.455760000000     0.0723351  
C161     C      0.695680000000     0.365760000000     0.533960000000     0.0722386  
C162     C      0.755690000000     0.369150000000     0.495950000000     0.034913   
C163     C      0.767410000000     0.388880000000     0.487480000000    -0.0879106  
C164     C      0.790760000000     0.388720000000     0.487720000000     0.0722825  
C165     C      0.790940000000     0.349790000000     0.503080000000     0.0722598  
C166     C      0.767600000000     0.349490000000     0.504140000000    -0.0878371  
C167     C      0.625370000000     0.470240000000     0.458000000000    -0.0865136  
C168     C      0.620170000000     0.482230000000     0.496930000000     0.0347089  
C169     C      0.614950000000     0.469930000000     0.535520000000    -0.0859668  
C170     C      0.615160000000     0.446550000000     0.534580000000     0.0723295  
C171     C      0.624680000000     0.446930000000     0.457890000000     0.0727603  
C172     C      0.620080000000     0.507280000000     0.497040000000     0.0348291  
C173     C      0.624510000000     0.519460000000     0.536130000000    -0.0862129  
C174     C      0.624050000000     0.542830000000     0.535550000000     0.0724645  
C175     C      0.615990000000     0.542700000000     0.458190000000     0.0726615  
C176     C      0.615560000000     0.519370000000     0.457880000000    -0.0864085  
C177     C      0.769400000000     0.389090000000     0.982140000000    -0.0878312  
C178     C      0.757530000000     0.369450000000     0.990660000000     0.0349367  
C179     C      0.769300000000     0.349770000000     0.999460000000    -0.0879758  
C180     C      0.792650000000     0.349980000000     0.999220000000     0.0722389  
C181     C      0.792740000000     0.388850000000     0.983240000000     0.0723627  
C182     C      0.732900000000     0.369540000000     0.991200000000     0.0348283  
C183     C      0.720800000000     0.373310000000     0.952050000000    -0.0877241  
C184     C      0.697440000000     0.372990000000     0.953210000000     0.0722949  
C185     C      0.698040000000     0.366170000000     0.031210000000     0.072589   
C186     C      0.721370000000     0.365830000000     0.031010000000    -0.08797    
C187     C      0.614420000000     0.469700000000     0.959080000000    -0.0865931  
C188     C      0.619210000000     0.481770000000     0.998100000000     0.0347023  
C189     C      0.623890000000     0.469590000000     0.037100000000    -0.0859999  
C190     C      0.623620000000     0.446210000000     0.036430000000     0.0723577  
C191     C      0.614980000000     0.446390000000     0.959310000000     0.0727995  
C192     C      0.619410000000     0.506790000000     0.997830000000     0.0346399  
C193     C      0.624890000000     0.518690000000     0.958930000000    -0.0863585  
C194     C      0.624510000000     0.542020000000     0.958790000000     0.0724914  
C195     C      0.614550000000     0.542490000000     0.035280000000     0.0723618  
C196     C      0.614100000000     0.519130000000     0.036260000000    -0.0860891  
C197     C      0.518570000000     0.613800000000     0.457980000000    -0.0866133  
C198     C      0.506380000000     0.618600000000     0.496830000000     0.034879   
C199     C      0.518410000000     0.623240000000     0.536010000000    -0.086179   
C200     C      0.541780000000     0.622900000000     0.535720000000     0.0723039  
C201     C      0.541890000000     0.614270000000     0.458580000000     0.0727492  
C202     C      0.481370000000     0.618860000000     0.496280000000     0.0346913  
C203     C      0.469560000000     0.624420000000     0.457320000000    -0.0863325  
C204     C      0.446230000000     0.624170000000     0.457050000000     0.0725131  
C205     C      0.445600000000     0.614100000000     0.533470000000     0.0724353  
C206     C      0.468940000000     0.613530000000     0.534590000000    -0.0862419  
C207     C      0.519500000000     0.626210000000     0.031070000000    -0.0861243  
C208     C      0.507540000000     0.620770000000     0.992220000000     0.0345671  
C209     C      0.519830000000     0.615370000000     0.953780000000    -0.086131   
C210     C      0.543190000000     0.615660000000     0.954690000000     0.0722485  
C211     C      0.542850000000     0.625690000000     0.031140000000     0.0723812  
C212     C      0.482520000000     0.620570000000     0.991940000000     0.0346555  
C213     C      0.470400000000     0.615740000000     0.030880000000    -0.0863275  
C214     C      0.447070000000     0.615920000000     0.030340000000     0.0725813  
C215     C      0.447020000000     0.624480000000     0.953180000000     0.072221   
C216     C      0.470390000000     0.625100000000     0.952820000000    -0.0860937  
C217     C      0.267400000000     0.365350000000     0.453930000000    -0.0879258  
C218     C      0.255650000000     0.369510000000     0.493320000000     0.0349413  
C219     C      0.267540000000     0.373700000000     0.532550000000    -0.0878512  
C220     C      0.290890000000     0.373380000000     0.531920000000     0.0723803  
C221     C      0.290740000000     0.365700000000     0.454220000000     0.0724312  
C222     C      0.231010000000     0.369480000000     0.493420000000     0.034956   
C223     C      0.219170000000     0.389110000000     0.502180000000    -0.0878539  
C224     C      0.195820000000     0.388880000000     0.501240000000     0.072364   
C225     C      0.195870000000     0.350060000000     0.484880000000     0.0724265  
C226     C      0.219220000000     0.349830000000     0.484460000000    -0.0879095  
C227     C      0.468650000000     0.365330000000     0.451860000000    -0.086252   
C228     C      0.480830000000     0.369900000000     0.490880000000     0.0348091  
C229     C      0.468750000000     0.374400000000     0.530070000000    -0.0864007  
C230     C      0.445420000000     0.373790000000     0.529850000000     0.0726642  
C231     C      0.445290000000     0.365590000000     0.452530000000     0.072527   
C232     C      0.505860000000     0.369880000000     0.490880000000     0.0347876  
C233     C      0.518070000000     0.375140000000     0.452220000000    -0.0860876  
C234     C      0.541440000000     0.374740000000     0.452860000000     0.0724217  
C235     C      0.541230000000     0.365050000000     0.529480000000     0.0726451  
C236     C      0.517910000000     0.364570000000     0.529670000000    -0.0865297  
C237     C      0.363520000000     0.469980000000     0.450720000000    -0.086119   
C238     C      0.368090000000     0.482190000000     0.489730000000     0.0348056  
C239     C      0.372970000000     0.470170000000     0.528750000000    -0.0866393  
C240     C      0.372680000000     0.446850000000     0.528470000000     0.0727896  
C241     C      0.364040000000     0.446610000000     0.451340000000     0.0722515  
C242     C      0.367790000000     0.507210000000     0.489910000000     0.0347989  
C243     C      0.373180000000     0.519500000000     0.451480000000    -0.086299   
C244     C      0.372820000000     0.542860000000     0.452410000000     0.0723678  
C245     C      0.362710000000     0.542470000000     0.528830000000     0.072481   
C246     C      0.362250000000     0.519140000000     0.528730000000    -0.0864188  
C247     C      0.221040000000     0.349780000000     0.981950000000    -0.0877628  
C248     C      0.232890000000     0.369450000000     0.990290000000     0.0349037  
C249     C      0.221110000000     0.389170000000     0.998600000000    -0.0879322  
C250     C      0.197760000000     0.388970000000     0.998080000000     0.0721634  
C251     C      0.197690000000     0.350040000000     0.982730000000     0.0721731  
C252     C      0.257530000000     0.369330000000     0.991000000000     0.0347379  
C253     C      0.269680000000     0.365820000000     0.951820000000    -0.0877323  
C254     C      0.293040000000     0.366000000000     0.953150000000     0.0722505  
C255     C      0.292350000000     0.372250000000     0.031340000000     0.0723904  
C256     C      0.269010000000     0.372700000000     0.030990000000    -0.0877915  
C257     C      0.470720000000     0.363130000000     0.959970000000    -0.0866076  
C258     C      0.482710000000     0.368350000000     0.998870000000     0.0347467  
C259     C      0.470460000000     0.373390000000     0.037580000000    -0.0860104  
C260     C      0.447080000000     0.373040000000     0.036770000000     0.0724374  
C261     C      0.447400000000     0.363640000000     0.960010000000     0.072713   
C262     C      0.507740000000     0.368610000000     0.998750000000     0.0346911  
C263     C      0.519660000000     0.373570000000     0.959620000000    -0.0865439  
C264     C      0.542970000000     0.373160000000     0.959530000000     0.072719   
C265     C      0.543440000000     0.364300000000     0.036550000000     0.072367   
C266     C      0.520070000000     0.363860000000     0.037510000000    -0.0860162  
C267     C      0.366260000000     0.518780000000     0.952090000000    -0.0861138  
C268     C      0.370590000000     0.506630000000     0.991260000000     0.0346758  
C269     C      0.375140000000     0.518750000000     0.030380000000    -0.0862873  
C270     C      0.374690000000     0.542070000000     0.030020000000     0.0728184  
C271     C      0.366700000000     0.542150000000     0.952620000000     0.0724158  
C272     C      0.370270000000     0.481590000000     0.991530000000     0.0347475  
C273     C      0.375410000000     0.469200000000     0.953030000000    -0.0861126  
C274     C      0.374820000000     0.445830000000     0.954010000000     0.072421   
C275     C      0.365110000000     0.446400000000     0.030610000000     0.0728033  
C276     C      0.364800000000     0.469720000000     0.030450000000    -0.086444   
C277     C      0.597560000000     0.769260000000     0.487630000000    -0.0876856  
C278     C      0.617230000000     0.757110000000     0.494240000000     0.0348305  
C279     C      0.637300000000     0.768580000000     0.500520000000    -0.0879395  
C280     C      0.637480000000     0.791910000000     0.499620000000     0.0723794  
C281     C      0.598240000000     0.792620000000     0.487920000000     0.0722246  
C282     C      0.616910000000     0.732490000000     0.494680000000     0.034874   
C283     C      0.613430000000     0.720520000000     0.455290000000    -0.0877985  
C284     C      0.614060000000     0.697170000000     0.456040000000     0.0722574  
C285     C      0.620640000000     0.697490000000     0.534140000000     0.0722928  
C286     C      0.620610000000     0.720840000000     0.534360000000    -0.0879253  
C287     C      0.601820000000     0.768020000000     0.985470000000    -0.088129   
C288     C      0.621910000000     0.756600000000     0.991900000000     0.0350056  
C289     C      0.641540000000     0.768800000000     0.998510000000    -0.0878901  
C290     C      0.640820000000     0.792160000000     0.998110000000     0.0721213  
C291     C      0.601600000000     0.791360000000     0.986280000000     0.0725169  
C292     C      0.622250000000     0.731960000000     0.992110000000     0.0346632  
C293     C      0.626020000000     0.720300000000     0.031750000000    -0.08769    
C294     C      0.625410000000     0.696950000000     0.031740000000     0.0722827  
C295     C      0.618300000000     0.696640000000     0.953830000000     0.0721051  
C296     C      0.618280000000     0.720000000000     0.952890000000    -0.0877726  
C297     C      0.640100000000     0.865200000000     0.693490000000    -0.0861948  
C298     C      0.620530000000     0.869660000000     0.717850000000     0.0347723  
C299     C      0.600940000000     0.874360000000     0.693790000000    -0.0863816  
C300     C      0.601080000000     0.874020000000     0.647220000000     0.0726379  
C301     C      0.639800000000     0.865720000000     0.646870000000     0.0724218  
C302     C      0.620480000000     0.869340000000     0.767810000000     0.034789   
C303     C      0.601000000000     0.863960000000     0.791680000000    -0.0864918  
C304     C      0.601020000000     0.864270000000     0.838250000000     0.0727015  
C305     C      0.639430000000     0.873870000000     0.838990000000     0.0724659  
C306     C      0.639830000000     0.874440000000     0.792370000000    -0.0862267  
C307     C      0.598800000000     0.864470000000     0.193590000000    -0.0861772  
C308     C      0.618350000000     0.869130000000     0.217860000000     0.034781   
C309     C      0.637880000000     0.873960000000     0.193740000000    -0.0864383  
C310     C      0.637710000000     0.873560000000     0.147190000000     0.0725884  
C311     C      0.599070000000     0.864900000000     0.146950000000     0.0724173  
C312     C      0.618450000000     0.868990000000     0.267810000000     0.0347419  
C313     C      0.599150000000     0.874280000000     0.292310000000    -0.086236   
C314     C      0.599590000000     0.873950000000     0.338930000000     0.0724004  
C315     C      0.637950000000     0.864150000000     0.338280000000     0.072554   
C316     C      0.637940000000     0.863650000000     0.291700000000    -0.0863876  
C317     C      0.614090000000     0.268440000000     0.527640000000    -0.0880235  
C318     C      0.616790000000     0.257060000000     0.487340000000     0.0349107  
C319     C      0.619730000000     0.269280000000     0.448080000000    -0.0878963  
C320     C      0.619780000000     0.292630000000     0.449660000000     0.0723076  
C321     C      0.614690000000     0.291780000000     0.528180000000     0.0723131  
C322     C      0.617070000000     0.232440000000     0.486500000000     0.0347925  
C323     C      0.637150000000     0.221010000000     0.480110000000    -0.0878634  
C324     C      0.637340000000     0.197680000000     0.480610000000     0.0722372  
C325     C      0.598090000000     0.196900000000     0.492110000000     0.0722802  
C326     C      0.597400000000     0.220260000000     0.492720000000    -0.0877015  
C327     C      0.602280000000     0.019100000000     0.478660000000    -0.0865149  
C328     C      0.621850000000     0.007280000000     0.489280000000     0.0348123  
C329     C      0.641250000000     0.019700000000     0.498480000000    -0.0859366  
C330     C      0.640750000000     0.043070000000     0.496880000000     0.0722982  
C331     C      0.602220000000     0.042420000000     0.478730000000     0.0728348  
C332     C      0.621860000000     0.982270000000     0.490890000000     0.0348243  
C333     C      0.602330000000     0.970430000000     0.501730000000    -0.0865015  
C334     C      0.602270000000     0.947120000000     0.501610000000     0.0727925  
C335     C      0.640750000000     0.946490000000     0.483000000000     0.0723335  
C336     C      0.641240000000     0.969860000000     0.481440000000    -0.0860181  
C337     C      0.641350000000     0.219750000000     0.995040000000    -0.0878139  
C338     C      0.621730000000     0.231980000000     0.988480000000     0.0348904  
C339     C      0.601700000000     0.220580000000     0.981280000000    -0.0878925  
C340     C      0.601500000000     0.197240000000     0.981350000000     0.0723549  
C341     C      0.640670000000     0.196400000000     0.993900000000     0.0721862  
C342     C      0.622040000000     0.256600000000     0.989490000000     0.0347237  
C343     C      0.618520000000     0.268860000000     0.950470000000    -0.0878118  
C344     C      0.618540000000     0.292200000000     0.952110000000     0.0722749  
C345     C      0.624780000000     0.291300000000     0.030300000000     0.0723041  
C346     C      0.625360000000     0.267960000000     0.029640000000    -0.0877308  
C347     C      0.599310000000     0.124220000000     0.786430000000    -0.086341   
C348     C      0.618950000000     0.119880000000     0.762210000000     0.0347996  
C349     C      0.638540000000     0.115340000000     0.786400000000    -0.0863649  
C350     C      0.638290000000     0.115620000000     0.832980000000     0.0725843  
C351     C      0.599520000000     0.123670000000     0.833030000000     0.0725577  
C352     C      0.619020000000     0.120060000000     0.712250000000     0.0347375  
C353     C      0.599720000000     0.114660000000     0.687830000000    -0.0862951  
C354     C      0.600040000000     0.115160000000     0.641240000000     0.0725019  
C355     C      0.638330000000     0.125230000000     0.641660000000     0.0724973  
C356     C      0.638420000000     0.125600000000     0.688250000000    -0.0863318  
C357     C      0.639010000000     0.114110000000     0.187870000000    -0.0863014  
C358     C      0.619720000000     0.119600000000     0.212250000000     0.0347531  
C359     C      0.600320000000     0.125100000000     0.188230000000    -0.0863283  
C360     C      0.600400000000     0.124640000000     0.141640000000     0.0725288  
C361     C      0.638680000000     0.114510000000     0.141270000000     0.0724394  
C362     C      0.619810000000     0.119570000000     0.262200000000     0.0347953  
C363     C      0.639450000000     0.124010000000     0.286340000000    -0.0863231  
C364     C      0.639250000000     0.123640000000     0.332960000000     0.0725412  
C365     C      0.600480000000     0.115580000000     0.333040000000     0.0725943  
C366     C      0.600230000000     0.115120000000     0.286470000000    -0.0863083  
C367     C      0.597480000000     0.969350000000     0.982050000000    -0.0858911  
C368     C      0.616890000000     0.981790000000     0.991020000000     0.0346857  
C369     C      0.636480000000     0.969980000000     0.001570000000    -0.0863995  
C370     C      0.636550000000     0.946660000000     0.001590000000     0.0728908  
C371     C      0.597990000000     0.945980000000     0.983770000000     0.0723293  
C372     C      0.616880000000     0.006800000000     0.989190000000     0.0348806  
C373     C      0.597500000000     0.019240000000     0.998500000000    -0.0861472  
C374     C      0.597990000000     0.042600000000     0.996730000000     0.072354   
C375     C      0.636470000000     0.041940000000     0.978210000000     0.0727884  
C376     C      0.636410000000     0.018620000000     0.978270000000    -0.0865206  
C377     C      0.219910000000     0.600770000000     0.481710000000    -0.0877533  
C378     C      0.231580000000     0.620530000000     0.490390000000     0.0348446  
C379     C      0.219600000000     0.640050000000     0.499380000000    -0.0877535  
C380     C      0.196250000000     0.639600000000     0.499080000000     0.072155   
C381     C      0.196570000000     0.600770000000     0.482760000000     0.0723466  
C382     C      0.256220000000     0.620700000000     0.490550000000     0.0348739  
C383     C      0.267910000000     0.624820000000     0.530040000000    -0.0878794  
C384     C      0.291250000000     0.624470000000     0.529920000000     0.0724028  
C385     C      0.291550000000     0.616950000000     0.452170000000     0.0722509  
C386     C      0.268190000000     0.616620000000     0.451370000000    -0.0877535  
C387     C      0.220690000000     0.599160000000     0.985410000000    -0.0878522  
C388     C      0.232660000000     0.618740000000     0.993970000000     0.0347704  
C389     C      0.221000000000     0.638550000000     0.002090000000    -0.0876693  
C390     C      0.197650000000     0.638550000000     0.001000000000     0.0722525  
C391     C      0.197350000000     0.599620000000     0.985610000000     0.0722653  
C392     C      0.257290000000     0.618570000000     0.993940000000     0.0347758  
C393     C      0.269190000000     0.621880000000     0.033490000000    -0.0877023  
C394     C      0.292540000000     0.621580000000     0.032810000000     0.0723154  
C395     C      0.292370000000     0.615530000000     0.954540000000     0.0723114  
C396     C      0.269030000000     0.615210000000     0.954240000000    -0.08788    
C397     C      0.125310000000     0.639010000000     0.791160000000    -0.0862646  
C398     C      0.120090000000     0.619540000000     0.767130000000     0.0346421  
C399     C      0.115010000000     0.600130000000     0.791470000000    -0.0861811  
C400     C      0.115500000000     0.600420000000     0.838070000000     0.0722109  
C401     C      0.125030000000     0.638860000000     0.837770000000     0.0722984  
C402     C      0.119900000000     0.619480000000     0.717200000000     0.0347296  
C403     C      0.114620000000     0.638880000000     0.693030000000    -0.0862667  
C404     C      0.114810000000     0.638610000000     0.646420000000     0.0723397  
C405     C      0.124390000000     0.600190000000     0.646410000000     0.0722758  
C406     C      0.124970000000     0.600020000000     0.693010000000    -0.086314   
C407     C      0.124640000000     0.600350000000     0.193000000000    -0.0863258  
C408     C      0.119460000000     0.619770000000     0.217200000000     0.0347212  
C409     C      0.114530000000     0.639270000000     0.193000000000    -0.0862166  
C410     C      0.115160000000     0.639120000000     0.146410000000     0.0723886  
C411     C      0.124460000000     0.600630000000     0.146410000000     0.0724257  
C412     C      0.119240000000     0.619690000000     0.267140000000     0.034736   
C413     C      0.114110000000     0.600190000000     0.291150000000    -0.0861798  
C414     C      0.114390000000     0.600320000000     0.337760000000     0.0723458  
C415     C      0.123680000000     0.638810000000     0.338100000000     0.0724623  
C416     C      0.124210000000     0.639120000000     0.291510000000    -0.0864077  
C417     C      0.767680000000     0.601690000000     0.499090000000    -0.0879123  
C418     C      0.756160000000     0.621740000000     0.492920000000     0.0347924  
C419     C      0.768260000000     0.641460000000     0.486670000000    -0.0876725  
C420     C      0.791620000000     0.640870000000     0.487260000000     0.0720503  
C421     C      0.791020000000     0.601600000000     0.498580000000     0.0723093  
C422     C      0.731540000000     0.622020000000     0.493440000000     0.0348514  
C423     C      0.719500000000     0.624850000000     0.453930000000    -0.08781    
C424     C      0.696140000000     0.624300000000     0.454940000000     0.0721858  
C425     C      0.696630000000     0.619000000000     0.533410000000     0.0723166  
C426     C      0.719970000000     0.619010000000     0.533440000000    -0.088003   
C427     C      0.969100000000     0.598830000000     0.485160000000    -0.0860767  
C428     C      0.981370000000     0.618340000000     0.494300000000     0.0348668  
C429     C      0.969390000000     0.637910000000     0.504160000000    -0.0865249  
C430     C      0.946070000000     0.637830000000     0.503620000000     0.0727116  
C431     C      0.945730000000     0.599200000000     0.486260000000     0.0723598  
C432     C      0.006390000000     0.618370000000     0.493490000000     0.0347386  
C433     C      0.018360000000     0.637820000000     0.482580000000    -0.0862521  
C434     C      0.041690000000     0.637770000000     0.483040000000     0.0725326  
C435     C      0.042030000000     0.599400000000     0.502530000000     0.0724289  
C436     C      0.018680000000     0.599020000000     0.503720000000    -0.0861389  
C437     C      0.768870000000     0.637920000000     0.989330000000    -0.0879781  
C438     C      0.757330000000     0.617960000000     0.996550000000     0.0348217  
C439     C      0.769410000000     0.598280000000     0.003430000000    -0.087678   
C440     C      0.792760000000     0.598810000000     0.002370000000     0.0723714  
C441     C      0.792200000000     0.637960000000     0.989500000000     0.0724336  
C442     C      0.732710000000     0.617730000000     0.996330000000     0.0347702  
C443     C      0.720770000000     0.614040000000     0.035690000000    -0.0876696  
C444     C      0.697410000000     0.614630000000     0.035000000000     0.0722316  
C445     C      0.697690000000     0.621570000000     0.957030000000     0.0724167  
C446     C      0.721020000000     0.621610000000     0.956760000000    -0.0879734  
C447     C      0.873320000000     0.600070000000     0.793070000000    -0.086246   
C448     C      0.868500000000     0.619620000000     0.768930000000     0.034791   
C449     C      0.863870000000     0.639160000000     0.793270000000    -0.0863031  
C450     C      0.864550000000     0.638940000000     0.839850000000     0.072604   
C451     C      0.873080000000     0.600280000000     0.839680000000     0.0726583  
C452     C      0.868370000000     0.619650000000     0.718940000000     0.0347221  
C453     C      0.863540000000     0.600140000000     0.694670000000    -0.0862061  
C454     C      0.863960000000     0.600380000000     0.648070000000     0.0725461  
C455     C      0.872600000000     0.639020000000     0.648140000000     0.0726006  
C456     C      0.873110000000     0.639200000000     0.694720000000    -0.086199   
C457     C      0.865110000000     0.639280000000     0.194700000000    -0.0864116  
C458     C      0.870080000000     0.619820000000     0.218970000000     0.0347686  
C459     C      0.875220000000     0.600350000000     0.194860000000    -0.086299   
C460     C      0.874920000000     0.600540000000     0.148260000000     0.0725195  
C461     C      0.865620000000     0.639030000000     0.148110000000     0.0724822  
C462     C      0.869830000000     0.619820000000     0.268900000000     0.0347953  
C463     C      0.864610000000     0.600370000000     0.292970000000    -0.0864304  
C464     C      0.864730000000     0.600600000000     0.339570000000     0.0724821  
C465     C      0.874060000000     0.639090000000     0.339780000000     0.0724399  
C466     C      0.874760000000     0.639290000000     0.293190000000    -0.0862877  
C467     C      0.019740000000     0.640190000000     0.981520000000    -0.0861405  
C468     C      0.007500000000     0.620880000000     0.992110000000     0.0347807  
C469     C      0.019490000000     0.601420000000     0.002890000000    -0.0863134  
C470     C      0.042820000000     0.601460000000     0.002010000000     0.0727198  
C471     C      0.043100000000     0.639810000000     0.982310000000     0.0723301  
C472     C      0.982470000000     0.620930000000     0.991810000000     0.0347536  
C473     C      0.970280000000     0.640460000000     0.001160000000    -0.0859515  
C474     C      0.946910000000     0.640120000000     0.000530000000     0.0724585  
C475     C      0.947110000000     0.601470000000     0.983280000000     0.0726045  
C476     C      0.970430000000     0.601370000000     0.982270000000    -0.0863654  
C477     C      0.387510000000     0.220710000000     0.491450000000    -0.0879191  
C478     C      0.367570000000     0.232410000000     0.497730000000     0.0348331  
C479     C      0.347790000000     0.220490000000     0.504550000000    -0.0877663  
C480     C      0.348210000000     0.197130000000     0.504420000000     0.0722905  
C481     C      0.387430000000     0.197370000000     0.492470000000     0.0723486  
C482     C      0.367430000000     0.257020000000     0.496780000000     0.0348592  
C483     C      0.364390000000     0.269230000000     0.536030000000    -0.0878368  
C484     C      0.364840000000     0.292580000000     0.534610000000     0.0722753  
C485     C      0.370470000000     0.291770000000     0.456230000000     0.0723099  
C486     C      0.370600000000     0.268420000000     0.456640000000    -0.0879599  
C487     C      0.367470000000     0.268580000000     0.039530000000    -0.0879197  
C488     C      0.370680000000     0.256440000000     0.000250000000     0.0350516  
C489     C      0.373680000000     0.267900000000     0.960130000000    -0.0881937  
C490     C      0.373180000000     0.291230000000     0.959770000000     0.0724653  
C491     C      0.367550000000     0.291940000000     0.038160000000     0.0724132  
C492     C      0.370600000000     0.231830000000     0.000890000000     0.0349084  
C493     C      0.390370000000     0.219870000000     0.994270000000    -0.0878861  
C494     C      0.389920000000     0.196520000000     0.994530000000     0.0722858  
C495     C      0.350690000000     0.196840000000     0.006450000000     0.0722493  
C496     C      0.350640000000     0.220180000000     0.007330000000    -0.0879014  
C497     C      0.349750000000     0.124970000000     0.798160000000    -0.0864674  
C498     C      0.369140000000     0.119910000000     0.773770000000     0.0347846  
C499     C      0.388680000000     0.114880000000     0.797760000000    -0.0862484  
C500     C      0.388590000000     0.115280000000     0.844370000000     0.0724317  
C501     C      0.350090000000     0.124530000000     0.844740000000     0.0725335  
C502     C      0.368980000000     0.119910000000     0.723820000000     0.0347614  
C503     C      0.349420000000     0.114940000000     0.699840000000    -0.0863012  
C504     C      0.349500000000     0.115370000000     0.653230000000     0.0724996  
C505     C      0.388020000000     0.124520000000     0.652830000000     0.0725005  
C506     C      0.388380000000     0.124920000000     0.699410000000    -0.0863966  
C507     C      0.388320000000     0.124290000000     0.298110000000    -0.0863584  
C508     C      0.368820000000     0.119490000000     0.273790000000     0.0347897  
C509     C      0.349210000000     0.114900000000     0.297950000000    -0.0862482  
C510     C      0.349330000000     0.115550000000     0.344540000000     0.0726363  
C511     C      0.388010000000     0.124010000000     0.344700000000     0.0727249  
C512     C      0.368930000000     0.119300000000     0.223790000000     0.0348735  
C513     C      0.388530000000     0.114500000000     0.199780000000    -0.0862832  
C514     C      0.388430000000     0.114860000000     0.153180000000     0.0727101  
C515     C      0.349770000000     0.123380000000     0.152760000000     0.0727766  
C516     C      0.349440000000     0.123960000000     0.199330000000    -0.0864575  
C517     C      0.390010000000     0.768890000000     0.503080000000    -0.0877561  
C518     C      0.370250000000     0.756970000000     0.495870000000     0.0349069  
C519     C      0.350380000000     0.768680000000     0.488780000000    -0.0880763  
C520     C      0.350500000000     0.792020000000     0.489450000000     0.072453   
C521     C      0.389630000000     0.792250000000     0.502510000000     0.0723768  
C522     C      0.370330000000     0.732350000000     0.495390000000     0.0348626  
C523     C      0.366330000000     0.720770000000     0.455730000000    -0.0879686  
C524     C      0.366330000000     0.697430000000     0.455770000000     0.072423   
C525     C      0.373410000000     0.696950000000     0.533690000000     0.0721646  
C526     C      0.374050000000     0.720300000000     0.534600000000    -0.0877724  
C527     C      0.388370000000     0.970090000000     0.486730000000    -0.0862751  
C528     C      0.368910000000     0.982170000000     0.496930000000     0.0348139  
C529     C      0.349390000000     0.969990000000     0.506510000000    -0.0861775  
C530     C      0.349590000000     0.946640000000     0.505140000000     0.0725228  
C531     C      0.388140000000     0.946750000000     0.487080000000     0.0725624  
C532     C      0.368960000000     0.007200000000     0.497440000000     0.0349137  
C533     C      0.388490000000     0.019290000000     0.507420000000    -0.0862709  
C534     C      0.388280000000     0.042650000000     0.506930000000     0.0726456  
C535     C      0.349720000000     0.042700000000     0.489050000000     0.072736   
C536     C      0.349480000000     0.019370000000     0.487820000000    -0.0864834  
C537     C      0.364530000000     0.720140000000     0.954890000000    -0.0878231  
C538     C      0.367820000000     0.731810000000     0.994700000000     0.0347619  
C539     C      0.371470000000     0.719870000000     0.034050000000    -0.0878287  
C540     C      0.371570000000     0.696520000000     0.033100000000     0.0723813  
C541     C      0.365210000000     0.696790000000     0.954930000000     0.0722278  
C542     C      0.367820000000     0.756430000000     0.995060000000     0.0348303  
C543     C      0.348000000000     0.768330000000     0.988580000000    -0.0877992  
C544     C      0.348340000000     0.791690000000     0.989420000000     0.0722365  
C545     C      0.387550000000     0.791490000000     0.001480000000     0.0725662  
C546     C      0.387710000000     0.768150000000     0.001820000000    -0.08795    
C547     C      0.388240000000     0.864190000000     0.795120000000    -0.0863186  
C548     C      0.368830000000     0.869240000000     0.770790000000     0.0347438  
C549     C      0.349280000000     0.874170000000     0.794850000000    -0.0862987  
C550     C      0.349380000000     0.873630000000     0.841450000000     0.072505   
C551     C      0.387910000000     0.864490000000     0.841700000000     0.0724506  
C552     C      0.368970000000     0.869330000000     0.720850000000     0.0347961  
C553     C      0.388510000000     0.874400000000     0.696880000000    -0.0862898  
C554     C      0.388420000000     0.874020000000     0.650270000000     0.0724364  
C555     C      0.349920000000     0.864760000000     0.649870000000     0.0725555  
C556     C      0.349580000000     0.864310000000     0.696450000000    -0.0863782  
C557     C      0.388660000000     0.873820000000     0.294880000000    -0.0862153  
C558     C      0.369050000000     0.869090000000     0.270830000000     0.0347527  
C559     C      0.349550000000     0.864440000000     0.295270000000    -0.0862588  
C560     C      0.349860000000     0.865000000000     0.341850000000     0.0726282  
C561     C      0.388540000000     0.873440000000     0.341490000000     0.0726967  
C562     C      0.368930000000     0.869000000000     0.220820000000     0.0348757  
C563     C      0.388420000000     0.864260000000     0.196430000000    -0.0863946  
C564     C      0.388090000000     0.864650000000     0.149840000000     0.0727826  
C565     C      0.349420000000     0.873090000000     0.150130000000     0.0728024  
C566     C      0.349310000000     0.873650000000     0.196720000000    -0.0863957  
C567     C      0.388300000000     0.018720000000     0.007010000000    -0.0864034  
C568     C      0.368820000000     0.006660000000     0.996830000000     0.0348504  
C569     C      0.349320000000     0.018850000000     0.987210000000    -0.0861839  
C570     C      0.349540000000     0.042210000000     0.988580000000     0.0725886  
C571     C      0.388080000000     0.042050000000     0.006660000000     0.0728314  
C572     C      0.368860000000     0.981630000000     0.996450000000     0.0347188  
C573     C      0.388380000000     0.969520000000     0.986540000000    -0.0860194  
C574     C      0.388190000000     0.946160000000     0.987280000000     0.0724134  
C575     C      0.349630000000     0.946150000000     0.005240000000     0.0728047  
C576     C      0.349380000000     0.969480000000     0.006210000000    -0.0863331  
H1       H      0.879430000000     0.334450000000     0.710500000000     0.050741   
H2       H      0.877840000000     0.334630000000     0.630070000000     0.026308   
H3       H      0.860240000000     0.403950000000     0.630740000000     0.0262773  
H4       H      0.859910000000     0.404060000000     0.711200000000     0.050752   
H5       H      0.879840000000     0.404050000000     0.775600000000     0.050783   
H6       H      0.879150000000     0.403930000000     0.856080000000     0.0262782  
H7       H      0.861650000000     0.334590000000     0.856380000000     0.026312   
H8       H      0.860410000000     0.334420000000     0.775960000000     0.0507782  
H9       H      0.878160000000     0.334730000000     0.211200000000     0.050741   
H10      H      0.877820000000     0.334830000000     0.130730000000     0.026323   
H11      H      0.860330000000     0.404180000000     0.130030000000     0.0263104  
H12      H      0.858730000000     0.404370000000     0.210440000000     0.0506632  
H13      H      0.877630000000     0.404440000000     0.275970000000     0.0507162  
H14      H      0.876350000000     0.404280000000     0.356400000000     0.0263607  
H15      H      0.858970000000     0.334910000000     0.356120000000     0.026245   
H16      H      0.858310000000     0.334770000000     0.275640000000     0.0506784  
H17      H      0.009640000000     0.404340000000     0.471920000000     0.0508172  
H18      H      0.049950000000     0.404170000000     0.473840000000     0.0263288  
H19      H      0.049900000000     0.334800000000     0.508640000000     0.0263637  
H20      H      0.009600000000     0.334680000000     0.510560000000     0.0507811  
H21      H      0.977050000000     0.334750000000     0.471770000000     0.0508119  
H22      H      0.936750000000     0.334890000000     0.474180000000     0.0263368  
H23      H      0.936840000000     0.404180000000     0.509570000000     0.0263176  
H24      H      0.977150000000     0.404330000000     0.511000000000     0.0508716  
H25      H      0.109420000000     0.334510000000     0.774710000000     0.0507779  
H26      H      0.110940000000     0.334690000000     0.855140000000     0.0263145  
H27      H      0.128440000000     0.404040000000     0.854520000000     0.0262987  
H28      H      0.128840000000     0.404150000000     0.774060000000     0.0507066  
H29      H      0.108960000000     0.404130000000     0.709640000000     0.050789   
H30      H      0.109610000000     0.404010000000     0.629170000000     0.026262   
H31      H      0.127150000000     0.334670000000     0.628820000000     0.0263048  
H32      H      0.128420000000     0.334500000000     0.709240000000     0.0507079  
H33      H      0.110650000000     0.404520000000     0.209230000000     0.0507618  
H34      H      0.112000000000     0.404370000000     0.128810000000     0.0263492  
H35      H      0.129480000000     0.335020000000     0.129160000000     0.0262883  
H36      H      0.130050000000     0.334870000000     0.209640000000     0.0506685  
H37      H      0.110130000000     0.334840000000     0.274020000000     0.0508356  
H38      H      0.110480000000     0.334940000000     0.354490000000     0.0262904  
H39      H      0.127990000000     0.404280000000     0.355180000000     0.0263125  
H40      H      0.129560000000     0.404470000000     0.274770000000     0.0507225  
H41      H      0.978950000000     0.334580000000     0.975030000000     0.0508174  
H42      H      0.938650000000     0.334690000000     0.977040000000     0.0263505  
H43      H      0.938600000000     0.404060000000     0.011770000000     0.0263133  
H44      H      0.978920000000     0.404240000000     0.013610000000     0.0508084  
H45      H      0.011580000000     0.334680000000     0.013570000000     0.0508471  
H46      H      0.051870000000     0.334860000000     0.010950000000     0.0263302  
H47      H      0.051660000000     0.404150000000     0.975590000000     0.0263161  
H48      H      0.011350000000     0.404260000000     0.974370000000     0.0508135  
H49      H      0.728350000000     0.375120000000     0.424750000000     0.0530574  
H50      H      0.687690000000     0.374650000000     0.424140000000     0.0263995  
H51      H      0.686920000000     0.363130000000     0.565190000000     0.026461   
H52      H      0.727660000000     0.362840000000     0.566290000000     0.0530264  
H53      H      0.758580000000     0.404360000000     0.481040000000     0.0531171  
H54      H      0.799270000000     0.404390000000     0.481160000000     0.0265238  
H55      H      0.799610000000     0.334180000000     0.509280000000     0.0265017  
H56      H      0.758900000000     0.333940000000     0.510680000000     0.0529606  
H57      H      0.610320000000     0.478150000000     0.566320000000     0.0506931  
H58      H      0.610970000000     0.437780000000     0.565130000000     0.0260713  
H59      H      0.628740000000     0.438490000000     0.426900000000     0.0260643  
H60      H      0.630230000000     0.478660000000     0.427560000000     0.0506509  
H61      H      0.628630000000     0.511160000000     0.567130000000     0.0506115  
H62      H      0.627550000000     0.551500000000     0.566560000000     0.0259642  
H63      H      0.612410000000     0.551250000000     0.427080000000     0.0260519  
H64      H      0.611360000000     0.511040000000     0.426960000000     0.0507366  
H65      H      0.760500000000     0.334300000000     0.006180000000     0.0530258  
H66      H      0.801190000000     0.334360000000     0.006060000000     0.0265527  
H67      H      0.801380000000     0.404460000000     0.976790000000     0.0265152  
H68      H      0.760670000000     0.404600000000     0.975360000000     0.0530456  
H69      H      0.729340000000     0.376210000000     0.920690000000     0.0530143  
H70      H      0.688600000000     0.375840000000     0.922130000000     0.0264424  
H71      H      0.689710000000     0.363310000000     0.062840000000     0.0264007  
H72      H      0.730350000000     0.362910000000     0.061870000000     0.0530394  
H73      H      0.628130000000     0.477920000000     0.068010000000     0.0506776  
H74      H      0.627400000000     0.437500000000     0.067270000000     0.0260667  
H75      H      0.611250000000     0.437890000000     0.928220000000     0.026163   
H76      H      0.610000000000     0.478070000000     0.928310000000     0.0507921  
H77      H      0.629770000000     0.510170000000     0.928600000000     0.0507262  
H78      H      0.628830000000     0.550410000000     0.927900000000     0.0262665  
H79      H      0.610320000000     0.551300000000     0.065760000000     0.0262888  
H80      H      0.609280000000     0.510940000000     0.066980000000     0.0507674  
H81      H      0.509980000000     0.627520000000     0.566790000000     0.0507224  
H82      H      0.550360000000     0.626670000000     0.566700000000     0.0261543  
H83      H      0.550520000000     0.610540000000     0.427640000000     0.0261656  
H84      H      0.510300000000     0.609430000000     0.427080000000     0.0508126  
H85      H      0.478160000000     0.629290000000     0.427060000000     0.0506942  
H86      H      0.437890000000     0.628560000000     0.426130000000     0.0262232  
H87      H      0.436740000000     0.609860000000     0.563890000000     0.0263226  
H88      H      0.477060000000     0.608610000000     0.565330000000     0.0507952  
H89      H      0.511610000000     0.610540000000     0.923100000000     0.0507865  
H90      H      0.551920000000     0.611320000000     0.924190000000     0.0263778  
H91      H      0.551310000000     0.629940000000     0.062000000000     0.0261976  
H92      H      0.511020000000     0.631130000000     0.061420000000     0.0506266  
H93      H      0.478740000000     0.611500000000     0.061780000000     0.050746   
H94      H      0.438500000000     0.612110000000     0.061320000000     0.0262331  
H95      H      0.438380000000     0.628090000000     0.922190000000     0.0261554  
H96      H      0.478740000000     0.629440000000     0.921990000000     0.0506618  
H97      H      0.258830000000     0.376940000000     0.563590000000     0.0529697  
H98      H      0.299540000000     0.376580000000     0.563070000000     0.0264269  
H99      H      0.299270000000     0.362520000000     0.422930000000     0.0264952  
H100     H      0.258590000000     0.362090000000     0.423010000000     0.0530032  
H101     H      0.227910000000     0.404590000000     0.509130000000     0.0530254  
H102     H      0.187210000000     0.404480000000     0.507920000000     0.0265095  
H103     H      0.187300000000     0.334460000000     0.477980000000     0.0264612  
H104     H      0.228000000000     0.334360000000     0.477610000000     0.0529042  
H105     H      0.477100000000     0.378670000000     0.560930000000     0.0507097  
H106     H      0.436870000000     0.377330000000     0.560960000000     0.0259907  
H107     H      0.436630000000     0.361960000000     0.421570000000     0.0260441  
H108     H      0.476950000000     0.361210000000     0.420860000000     0.050698   
H109     H      0.509790000000     0.379880000000     0.421550000000     0.0507773  
H110     H      0.550150000000     0.378910000000     0.422220000000     0.0261634  
H111     H      0.549740000000     0.360860000000     0.560320000000     0.0261178  
H112     H      0.509540000000     0.359730000000     0.560170000000     0.0506688  
H113     H      0.377280000000     0.478580000000     0.559530000000     0.0508438  
H114     H      0.376490000000     0.438360000000     0.559540000000     0.0262228  
H115     H      0.360360000000     0.437890000000     0.420480000000     0.0261202  
H116     H      0.359200000000     0.478280000000     0.419820000000     0.0506824  
H117     H      0.378050000000     0.511290000000     0.420820000000     0.0508276  
H118     H      0.377160000000     0.551620000000     0.421940000000     0.0263161  
H119     H      0.358390000000     0.550910000000     0.559670000000     0.0262337  
H120     H      0.357320000000     0.510640000000     0.559050000000     0.0507332  
H121     H      0.229910000000     0.404660000000     0.005160000000     0.0531734  
H122     H      0.189200000000     0.404620000000     0.004550000000     0.0266523  
H123     H      0.189070000000     0.334410000000     0.976430000000     0.0265141  
H124     H      0.229770000000     0.334230000000     0.975520000000     0.052923   
H125     H      0.261170000000     0.363180000000     0.920340000000     0.0530265  
H126     H      0.301910000000     0.363330000000     0.922050000000     0.0264411  
H127     H      0.300650000000     0.374820000000     0.063100000000     0.0264091  
H128     H      0.259980000000     0.375430000000     0.061870000000     0.0530451  
H129     H      0.478720000000     0.377980000000     0.068360000000     0.0508028  
H130     H      0.438330000000     0.377100000000     0.067410000000     0.0261446  
H131     H      0.438950000000     0.359570000000     0.929040000000     0.0260837  
H132     H      0.479130000000     0.358400000000     0.929440000000     0.0506661  
H133     H      0.511180000000     0.378060000000     0.929010000000     0.0507212  
H134     H      0.551370000000     0.377050000000     0.928400000000     0.0260795  
H135     H      0.552250000000     0.360490000000     0.067250000000     0.0261493  
H136     H      0.511870000000     0.359470000000     0.068470000000     0.0507285  
H137     H      0.379290000000     0.510420000000     0.061340000000     0.0507195  
H138     H      0.378200000000     0.550650000000     0.061130000000     0.0260339  
H139     H      0.363200000000     0.550790000000     0.921590000000     0.0259904  
H140     H      0.362160000000     0.510460000000     0.921090000000     0.0505796  
H141     H      0.380230000000     0.477330000000     0.922260000000     0.0507257  
H142     H      0.378950000000     0.436980000000     0.923520000000     0.0260869  
H143     H      0.360840000000     0.438030000000     0.061570000000     0.0260803  
H144     H      0.360000000000     0.478240000000     0.060820000000     0.0506957  
H145     H      0.652800000000     0.759550000000     0.505660000000     0.0530558  
H146     H      0.653420000000     0.800190000000     0.504420000000     0.0264755  
H147     H      0.582640000000     0.801500000000     0.482910000000     0.0264755  
H148     H      0.581760000000     0.760740000000     0.482740000000     0.0531043  
H149     H      0.610600000000     0.729170000000     0.424020000000     0.0531249  
H150     H      0.611460000000     0.688450000000     0.424750000000     0.0265136  
H151     H      0.623540000000     0.689040000000     0.565630000000     0.0265293  
H152     H      0.623380000000     0.729730000000     0.565380000000     0.053137   
H153     H      0.657350000000     0.760330000000     0.003590000000     0.0530342  
H154     H      0.656400000000     0.801080000000     0.003150000000     0.0264867  
H155     H      0.585640000000     0.799600000000     0.981400000000     0.0264206  
H156     H      0.586350000000     0.758960000000     0.980370000000     0.0532231  
H157     H      0.629060000000     0.729190000000     0.062670000000     0.0531015  
H158     H      0.628240000000     0.688490000000     0.063240000000     0.0265646  
H159     H      0.615200000000     0.687930000000     0.922710000000     0.0265138  
H160     H      0.615280000000     0.728650000000     0.921690000000     0.0530372  
H161     H      0.585480000000     0.878590000000     0.710510000000     0.0507244  
H162     H      0.585510000000     0.877680000000     0.630200000000     0.026052   
H163     H      0.655300000000     0.862140000000     0.629520000000     0.0259934  
H164     H      0.655610000000     0.860960000000     0.710020000000     0.0506222  
H165     H      0.585730000000     0.859230000000     0.774800000000     0.0506773  
H166     H      0.585540000000     0.860060000000     0.855100000000     0.0260027  
H167     H      0.654770000000     0.877950000000     0.856490000000     0.0261606  
H168     H      0.655220000000     0.879210000000     0.776000000000     0.0507857  
H169     H      0.653320000000     0.878330000000     0.210420000000     0.0507307  
H170     H      0.653250000000     0.877340000000     0.130150000000     0.0261797  
H171     H      0.583590000000     0.861160000000     0.129640000000     0.0260991  
H172     H      0.583340000000     0.860150000000     0.210230000000     0.0506947  
H173     H      0.583760000000     0.879020000000     0.275870000000     0.050797   
H174     H      0.584280000000     0.878180000000     0.356370000000     0.0262628  
H175     H      0.653430000000     0.859970000000     0.355170000000     0.0261639  
H176     H      0.653180000000     0.858810000000     0.274820000000     0.0506962  
H177     H      0.621900000000     0.260830000000     0.416390000000     0.0531761  
H178     H      0.622060000000     0.301550000000     0.418490000000     0.0264929  
H179     H      0.612690000000     0.300020000000     0.560160000000     0.0264379  
H180     H      0.611860000000     0.259350000000     0.558590000000     0.0532307  
H181     H      0.652660000000     0.230080000000     0.475320000000     0.0530716  
H182     H      0.653290000000     0.189420000000     0.475810000000     0.0265161  
H183     H      0.582480000000     0.188000000000     0.496940000000     0.0264604  
H184     H      0.581590000000     0.228750000000     0.497780000000     0.053099   
H185     H      0.656740000000     0.011570000000     0.507690000000     0.0507563  
H186     H      0.656090000000     0.051960000000     0.504400000000     0.0262091  
H187     H      0.586630000000     0.050740000000     0.470540000000     0.0261791  
H188     H      0.586980000000     0.010530000000     0.469810000000     0.0508223  
H189     H      0.587050000000     0.978990000000     0.510770000000     0.0508011  
H190     H      0.586720000000     0.938790000000     0.509970000000     0.0261508  
H191     H      0.656080000000     0.937610000000     0.475290000000     0.0262142  
H192     H      0.656690000000     0.978000000000     0.472070000000     0.0508123  
H193     H      0.586230000000     0.229670000000     0.976180000000     0.0531383  
H194     H      0.585580000000     0.189020000000     0.975930000000     0.0264919  
H195     H      0.656230000000     0.187460000000     0.998970000000     0.0264058  
H196     H      0.657130000000     0.228200000000     0.000660000000     0.053033   
H197     H      0.615870000000     0.260450000000     0.918880000000     0.0530954  
H198     H      0.615810000000     0.301150000000     0.921120000000     0.0265465  
H199     H      0.627260000000     0.299520000000     0.062170000000     0.0263903  
H200     H      0.628050000000     0.258830000000     0.060420000000     0.0530674  
H201     H      0.654060000000     0.111250000000     0.769760000000     0.0507489  
H202     H      0.653850000000     0.112060000000     0.850120000000     0.0261034  
H203     H      0.583950000000     0.127130000000     0.850250000000     0.0259691  
H204     H      0.583810000000     0.128380000000     0.769790000000     0.0506321  
H205     H      0.584400000000     0.109720000000     0.704300000000     0.0507534  
H206     H      0.584720000000     0.110850000000     0.623890000000     0.0262136  
H207     H      0.653740000000     0.129580000000     0.624650000000     0.026164   
H208     H      0.653660000000     0.130500000000     0.705060000000     0.0507048  
H209     H      0.585090000000     0.130060000000     0.205010000000     0.050727   
H210     H      0.585000000000     0.128980000000     0.124620000000     0.0261979  
H211     H      0.653990000000     0.110160000000     0.123940000000     0.0262392  
H212     H      0.654320000000     0.109190000000     0.204380000000     0.0507783  
H213     H      0.654950000000     0.128100000000     0.269640000000     0.0506436  
H214     H      0.654820000000     0.127170000000     0.350120000000     0.0259709  
H215     H      0.584920000000     0.112080000000     0.350240000000     0.0261086  
H216     H      0.584700000000     0.110970000000     0.269890000000     0.0507099  
H217     H      0.651790000000     0.978560000000     0.010280000000     0.0508164  
H218     H      0.652150000000     0.938360000000     0.009680000000     0.0261243  
H219     H      0.582630000000     0.937070000000     0.976400000000     0.0261691  
H220     H      0.581960000000     0.977450000000     0.972920000000     0.0507051  
H221     H      0.582040000000     0.011130000000     0.007930000000     0.0508912  
H222     H      0.582660000000     0.051500000000     0.004370000000     0.0262437  
H223     H      0.652030000000     0.050250000000     0.969830000000     0.0261436  
H224     H      0.651690000000     0.010050000000     0.969300000000     0.0507933  
H225     H      0.228230000000     0.655610000000     0.506200000000     0.0528135  
H226     H      0.187530000000     0.655110000000     0.506000000000     0.0264907  
H227     H      0.188100000000     0.585080000000     0.476150000000     0.0265382  
H228     H      0.228800000000     0.585370000000     0.474760000000     0.0530218  
H229     H      0.259040000000     0.627990000000     0.560930000000     0.0529989  
H230     H      0.299710000000     0.627580000000     0.561310000000     0.0265156  
H231     H      0.300260000000     0.613800000000     0.421070000000     0.0264533  
H232     H      0.259540000000     0.613410000000     0.420250000000     0.052943   
H233     H      0.229880000000     0.653990000000     0.008690000000     0.0530031  
H234     H      0.189190000000     0.654270000000     0.007220000000     0.0265336  
H235     H      0.188640000000     0.584070000000     0.979040000000     0.026513   
H236     H      0.229340000000     0.583570000000     0.979000000000     0.0530643  
H237     H      0.260480000000     0.624500000000     0.064760000000     0.0530714  
H238     H      0.301210000000     0.624130000000     0.064180000000     0.0265019  
H239     H      0.300880000000     0.613010000000     0.922990000000     0.0264333  
H240     H      0.260200000000     0.612630000000     0.923080000000     0.0530382  
H241     H      0.110320000000     0.584750000000     0.774910000000     0.0507577  
H242     H      0.111450000000     0.585020000000     0.855350000000     0.0263711  
H243     H      0.129160000000     0.654310000000     0.854810000000     0.0262622  
H244     H      0.129910000000     0.654340000000     0.774320000000     0.0506872  
H245     H      0.110020000000     0.654250000000     0.709740000000     0.0507682  
H246     H      0.110630000000     0.654020000000     0.629270000000     0.0263603  
H247     H      0.128420000000     0.584750000000     0.629230000000     0.0262915  
H248     H      0.129690000000     0.584690000000     0.709700000000     0.0507246  
H249     H      0.109870000000     0.654630000000     0.209670000000     0.0507331  
H250     H      0.111230000000     0.654590000000     0.129220000000     0.0262625  
H251     H      0.128550000000     0.585200000000     0.129250000000     0.0262965  
H252     H      0.129160000000     0.584950000000     0.209670000000     0.0506925  
H253     H      0.109580000000     0.584830000000     0.274320000000     0.0507155  
H254     H      0.110360000000     0.584840000000     0.354800000000     0.0262463  
H255     H      0.127650000000     0.654240000000     0.355400000000     0.0263103  
H256     H      0.128850000000     0.654520000000     0.275010000000     0.0507366  
H257     H      0.759710000000     0.657250000000     0.481880000000     0.0530107  
H258     H      0.800460000000     0.656520000000     0.482570000000     0.0265014  
H259     H      0.799340000000     0.585680000000     0.503360000000     0.0265331  
H260     H      0.758690000000     0.586150000000     0.503990000000     0.0532165  
H261     H      0.728090000000     0.627160000000     0.422440000000     0.0531974  
H262     H      0.687360000000     0.626400000000     0.423570000000     0.0265368  
H263     H      0.688250000000     0.616650000000     0.565160000000     0.0264756  
H264     H      0.728930000000     0.616750000000     0.564550000000     0.0531721  
H265     H      0.977840000000     0.653300000000     0.512810000000     0.0508273  
H266     H      0.937620000000     0.653410000000     0.511270000000     0.0262142  
H267     H      0.936970000000     0.583770000000     0.478860000000     0.0261883  
H268     H      0.977340000000     0.583340000000     0.476430000000     0.0508045  
H269     H      0.009890000000     0.653090000000     0.473120000000     0.050783   
H270     H      0.050150000000     0.653230000000     0.474500000000     0.0263031  
H271     H      0.050780000000     0.584060000000     0.510740000000     0.0263091  
H272     H      0.010450000000     0.583650000000     0.513350000000     0.0507918  
H273     H      0.760850000000     0.582560000000     0.009000000000     0.0531098  
H274     H      0.801590000000     0.583190000000     0.007540000000     0.026491   
H275     H      0.800540000000     0.653810000000     0.983930000000     0.0264179  
H276     H      0.759890000000     0.653430000000     0.983920000000     0.0529724  
H277     H      0.729440000000     0.611060000000     0.066870000000     0.053068   
H278     H      0.688700000000     0.611860000000     0.066250000000     0.0264851  
H279     H      0.689230000000     0.624590000000     0.925600000000     0.0265795  
H280     H      0.729890000000     0.624520000000     0.925760000000     0.0531097  
H281     H      0.859420000000     0.654620000000     0.776780000000     0.050589   
H282     H      0.860900000000     0.654450000000     0.857110000000     0.0259274  
H283     H      0.876890000000     0.584760000000     0.856790000000     0.0259464  
H284     H      0.877620000000     0.584610000000     0.776410000000     0.0506678  
H285     H      0.859150000000     0.584680000000     0.711240000000     0.0505666  
H286     H      0.860170000000     0.584890000000     0.630840000000     0.0259456  
H287     H      0.876370000000     0.654530000000     0.630980000000     0.0260032  
H288     H      0.877560000000     0.654640000000     0.711310000000     0.0506362  
H289     H      0.879760000000     0.584980000000     0.211620000000     0.0507705  
H290     H      0.878940000000     0.585080000000     0.131140000000     0.0262124  
H291     H      0.861640000000     0.654470000000     0.130890000000     0.0262773  
H292     H      0.860480000000     0.654660000000     0.211280000000     0.0507569  
H293     H      0.860110000000     0.585000000000     0.276210000000     0.0507638  
H294     H      0.860600000000     0.585160000000     0.356650000000     0.0262323  
H295     H      0.877970000000     0.654540000000     0.357040000000     0.0262431  
H296     H      0.879460000000     0.654660000000     0.276620000000     0.0507668  
H297     H      0.011050000000     0.586180000000     0.012580000000     0.0508763  
H298     H      0.051310000000     0.586010000000     0.010490000000     0.0262944  
H299     H      0.051820000000     0.655130000000     0.973870000000     0.0263063  
H300     H      0.011480000000     0.655560000000     0.971970000000     0.0507556  
H301     H      0.978590000000     0.655950000000     0.009680000000     0.050785   
H302     H      0.938210000000     0.655570000000     0.008050000000     0.0262089  
H303     H      0.938600000000     0.585900000000     0.975830000000     0.0262302  
H304     H      0.978820000000     0.585950000000     0.973490000000     0.0507194  
H305     H      0.332080000000     0.229180000000     0.509430000000     0.0530439  
H306     H      0.332510000000     0.188430000000     0.509550000000     0.0264773  
H307     H      0.403270000000     0.188900000000     0.487600000000     0.0264855  
H308     H      0.403090000000     0.229570000000     0.486120000000     0.0531646  
H309     H      0.361960000000     0.260770000000     0.567630000000     0.0531596  
H310     H      0.362540000000     0.301490000000     0.565780000000     0.0265283  
H311     H      0.372900000000     0.300020000000     0.424380000000     0.026467   
H312     H      0.373000000000     0.259330000000     0.425730000000     0.0531774  
H313     H      0.376130000000     0.258860000000     0.929170000000     0.0532022  
H314     H      0.375460000000     0.299520000000     0.927920000000     0.0264182  
H315     H      0.365110000000     0.300810000000     0.069330000000     0.0264459  
H316     H      0.365090000000     0.260070000000     0.071090000000     0.0531838  
H317     H      0.406080000000     0.228530000000     0.989150000000     0.0531452  
H318     H      0.405600000000     0.187800000000     0.989390000000     0.0265136  
H319     H      0.334840000000     0.188390000000     0.011280000000     0.0264719  
H320     H      0.335060000000     0.229070000000     0.012410000000     0.0530695  
H321     H      0.404020000000     0.110310000000     0.780930000000     0.0507348  
H322     H      0.404080000000     0.111270000000     0.861410000000     0.0261683  
H323     H      0.334670000000     0.128510000000     0.862050000000     0.0262353  
H324     H      0.334330000000     0.129560000000     0.781680000000     0.050727   
H325     H      0.334080000000     0.110390000000     0.716670000000     0.0507727  
H326     H      0.333990000000     0.111430000000     0.636210000000     0.026169   
H327     H      0.403440000000     0.128490000000     0.635510000000     0.0262601  
H328     H      0.403820000000     0.129460000000     0.715890000000     0.0506853  
H329     H      0.333780000000     0.110480000000     0.281330000000     0.0506606  
H330     H      0.333780000000     0.111910000000     0.361680000000     0.0259157  
H331     H      0.403500000000     0.127780000000     0.361950000000     0.0259407  
H332     H      0.403810000000     0.128590000000     0.281600000000     0.0506541  
H333     H      0.403950000000     0.110160000000     0.216530000000     0.0506941  
H334     H      0.403980000000     0.111110000000     0.136150000000     0.0259174  
H335     H      0.334290000000     0.127080000000     0.135400000000     0.0259568  
H336     H      0.333950000000     0.128380000000     0.215700000000     0.0506632  
H337     H      0.334830000000     0.759840000000     0.483130000000     0.0530436  
H338     H      0.334710000000     0.800500000000     0.483990000000     0.0264109  
H339     H      0.405300000000     0.800940000000     0.507960000000     0.0264825  
H340     H      0.405660000000     0.760190000000     0.508590000000     0.0531082  
H341     H      0.363390000000     0.729720000000     0.424840000000     0.0531188  
H342     H      0.363250000000     0.689040000000     0.424280000000     0.0265618  
H343     H      0.376230000000     0.688160000000     0.564830000000     0.026503   
H344     H      0.377120000000     0.728880000000     0.565850000000     0.0530559  
H345     H      0.334000000000     0.978280000000     0.515700000000     0.0508119  
H346     H      0.334130000000     0.937970000000     0.512780000000     0.0261536  
H347     H      0.403610000000     0.938200000000     0.479070000000     0.0262152  
H348     H      0.403780000000     0.978460000000     0.477860000000     0.05073    
H349     H      0.403890000000     0.010910000000     0.516210000000     0.0508302  
H350     H      0.403750000000     0.051250000000     0.514790000000     0.0260659  
H351     H      0.334230000000     0.051310000000     0.481410000000     0.0262072  
H352     H      0.334070000000     0.011090000000     0.478690000000     0.0508187  
H353     H      0.374090000000     0.728530000000     0.065380000000     0.053117   
H354     H      0.374380000000     0.687830000000     0.064360000000     0.0265262  
H355     H      0.362720000000     0.688320000000     0.923340000000     0.0265213  
H356     H      0.361730000000     0.729020000000     0.923870000000     0.0531234  
H357     H      0.332330000000     0.759630000000     0.983320000000     0.0530049  
H358     H      0.332620000000     0.800370000000     0.984460000000     0.0264622  
H359     H      0.403360000000     0.799980000000     0.006600000000     0.0264518  
H360     H      0.403320000000     0.759310000000     0.006860000000     0.0531895  
H361     H      0.333930000000     0.878740000000     0.778080000000     0.050768   
H362     H      0.333880000000     0.877540000000     0.858530000000     0.0261531  
H363     H      0.403330000000     0.860500000000     0.858970000000     0.0262558  
H364     H      0.403680000000     0.859680000000     0.778580000000     0.0506536  
H365     H      0.403840000000     0.878970000000     0.713720000000     0.0507706  
H366     H      0.403910000000     0.878020000000     0.633250000000     0.0261657  
H367     H      0.334510000000     0.860770000000     0.632550000000     0.0262581  
H368     H      0.334150000000     0.859700000000     0.712920000000     0.0506683  
H369     H      0.334050000000     0.860040000000     0.278880000000     0.0505745  
H370     H      0.334380000000     0.861330000000     0.359180000000     0.0259582  
H371     H      0.404090000000     0.877170000000     0.358540000000     0.0258966  
H372     H      0.404090000000     0.878140000000     0.278150000000     0.0506732  
H373     H      0.403920000000     0.859930000000     0.212880000000     0.0506462  
H374     H      0.403580000000     0.860920000000     0.132530000000     0.0259476  
H375     H      0.333860000000     0.876770000000     0.133050000000     0.0258875  
H376     H      0.333890000000     0.878030000000     0.213390000000     0.0507361  
H377     H      0.333920000000     0.010560000000     0.978030000000     0.0507697  
H378     H      0.334090000000     0.050890000000     0.980940000000     0.0260731  
H379     H      0.403570000000     0.050580000000     0.014690000000     0.0262532  
H380     H      0.403690000000     0.010340000000     0.015910000000     0.0508753  
H381     H      0.403780000000     0.977890000000     0.977610000000     0.0507308  
H382     H      0.403660000000     0.937550000000     0.979470000000     0.0261667  
H383     H      0.334150000000     0.937540000000     0.012990000000     0.0262385  
H384     H      0.333970000000     0.977780000000     0.015270000000     0.0508262  
N1       N      0.869000000000     0.369290000000     0.624430000000    -0.197877   
N2       N      0.870390000000     0.369270000000     0.862200000000    -0.197773   
N3       N      0.869120000000     0.369500000000     0.124400000000    -0.197688   
N4       N      0.867670000000     0.369580000000     0.362240000000    -0.197697   
N5       N      0.052920000000     0.369490000000     0.491260000000    -0.197881   
N6       N      0.933800000000     0.369530000000     0.491950000000    -0.197831   
N7       N      0.119720000000     0.369370000000     0.860810000000    -0.197781   
N8       N      0.118390000000     0.369350000000     0.623020000000    -0.197869   
N9       N      0.120740000000     0.369680000000     0.123000000000    -0.197718   
N10      N      0.119190000000     0.369600000000     0.360820000000    -0.197755   
N11      N      0.935630000000     0.369380000000     0.994370000000    -0.197919   
N12      N      0.054760000000     0.369500000000     0.993190000000    -0.197875   
N13      N      0.684290000000     0.368900000000     0.494620000000    -0.197742   
N14      N      0.802450000000     0.369280000000     0.495100000000    -0.197648   
N15      N      0.619700000000     0.435150000000     0.495900000000    -0.197966   
N16      N      0.620020000000     0.554360000000     0.496790000000    -0.197927   
N17      N      0.804290000000     0.369420000000     0.991550000000    -0.197855   
N18      N      0.686140000000     0.369570000000     0.992560000000    -0.197954   
N19      N      0.619490000000     0.434710000000     0.997680000000    -0.197975   
N20      N      0.619520000000     0.553850000000     0.996730000000    -0.197885   
N21      N      0.553430000000     0.618730000000     0.497150000000    -0.197988   
N22      N      0.434320000000     0.619200000000     0.494900000000    -0.19797    
N23      N      0.554610000000     0.620550000000     0.993200000000    -0.197727   
N24      N      0.435450000000     0.620110000000     0.991740000000    -0.197769   
N25      N      0.302410000000     0.369550000000     0.492980000000    -0.197916   
N26      N      0.184250000000     0.369470000000     0.492890000000    -0.197849   
N27      N      0.433770000000     0.369580000000     0.491320000000    -0.197952   
N28      N      0.552930000000     0.369940000000     0.491310000000    -0.197934   
N29      N      0.368340000000     0.435140000000     0.490060000000    -0.197846   
N30      N      0.367870000000     0.554260000000     0.490920000000    -0.197891   
N31      N      0.186120000000     0.369510000000     0.990580000000    -0.197623   
N32      N      0.304290000000     0.369050000000     0.992670000000    -0.197772   
N33      N      0.435650000000     0.368470000000     0.998130000000    -0.198057   
N34      N      0.554800000000     0.368670000000     0.997720000000    -0.19796    
N35      N      0.370600000000     0.553700000000     0.991410000000    -0.198002   
N36      N      0.369970000000     0.434530000000     0.992650000000    -0.197987   
N37      N      0.618080000000     0.803860000000     0.493610000000    -0.197702   
N38      N      0.617590000000     0.685730000000     0.495200000000    -0.197814   
N39      N      0.620960000000     0.803360000000     0.992350000000    -0.197721   
N40      N      0.621630000000     0.685200000000     0.993050000000    -0.197684   
N41      N      0.620380000000     0.869840000000     0.623910000000    -0.197911   
N42      N      0.620110000000     0.869060000000     0.861750000000    -0.198032   
N43      N      0.618430000000     0.869180000000     0.123930000000    -0.197917   
N44      N      0.618900000000     0.869140000000     0.361740000000    -0.197964   
N45      N      0.617470000000     0.303800000000     0.489470000000    -0.197714   
N46      N      0.617940000000     0.185690000000     0.486450000000    -0.197713   
N47      N      0.621300000000     0.054340000000     0.487670000000    -0.198001   
N48      N      0.621330000000     0.935210000000     0.492410000000    -0.197893   
N49      N      0.620850000000     0.185220000000     0.987460000000    -0.197676   
N50      N      0.621460000000     0.303350000000     0.991800000000    -0.197772   
N51      N      0.618900000000     0.119610000000     0.856140000000    -0.197899   
N52      N      0.619250000000     0.120200000000     0.618310000000    -0.19799    
N53      N      0.619470000000     0.119550000000     0.118320000000    -0.197985   
N54      N      0.619870000000     0.119670000000     0.356130000000    -0.197973   
N55      N      0.617460000000     0.934730000000     0.992820000000    -0.197941   
N56      N      0.617410000000     0.053860000000     0.987300000000    -0.197877   
N57      N      0.184810000000     0.620060000000     0.491160000000    -0.197683   
N58      N      0.302990000000     0.620650000000     0.491240000000    -0.197762   
N59      N      0.185900000000     0.619200000000     0.993050000000    -0.197721   
N60      N      0.304060000000     0.618600000000     0.993560000000    -0.197758   
N61      N      0.120310000000     0.619680000000     0.861070000000    -0.197715   
N62      N      0.119510000000     0.619380000000     0.623260000000    -0.197764   
N63      N      0.119900000000     0.619900000000     0.123270000000    -0.197875   
N64      N      0.119000000000     0.619520000000     0.361070000000    -0.197859   
N65      N      0.802930000000     0.621060000000     0.493000000000    -0.197659   
N66      N      0.684780000000     0.621440000000     0.494410000000    -0.197735   
N67      N      0.934300000000     0.618620000000     0.494880000000    -0.19785    
N68      N      0.053460000000     0.618680000000     0.492700000000    -0.197876   
N69      N      0.804080000000     0.618530000000     0.995650000000    -0.197898   
N70      N      0.685950000000     0.618300000000     0.995920000000    -0.197862   
N71      N      0.868950000000     0.619610000000     0.862890000000    -0.198019   
N72      N      0.868280000000     0.619710000000     0.624970000000    -0.197989   
N73      N      0.870280000000     0.619760000000     0.125050000000    -0.197909   
N74      N      0.869250000000     0.619850000000     0.362810000000    -0.197918   
N75      N      0.054550000000     0.620530000000     0.992070000000    -0.197907   
N76      N      0.935420000000     0.620710000000     0.992170000000    -0.197847   
N77      N      0.367900000000     0.185650000000     0.498600000000    -0.197804   
N78      N      0.367760000000     0.303770000000     0.494970000000    -0.197745   
N79      N      0.370240000000     0.303180000000     0.998520000000    -0.197929   
N80      N      0.370200000000     0.185080000000     0.000220000000    -0.197604   
N81      N      0.369390000000     0.119860000000     0.867690000000    -0.197957   
N82      N      0.368690000000     0.119950000000     0.629890000000    -0.197937   
N83      N      0.368630000000     0.119850000000     0.367740000000    -0.198097   
N84      N      0.369160000000     0.119090000000     0.129840000000    -0.198115   
N85      N      0.370000000000     0.803730000000     0.495970000000    -0.197767   
N86      N      0.369670000000     0.685590000000     0.494510000000    -0.197842   
N87      N      0.368870000000     0.935100000000     0.495950000000    -0.197854   
N88      N      0.369000000000     0.054270000000     0.498210000000    -0.198027   
N89      N      0.368630000000     0.685060000000     0.993780000000    -0.197822   
N90      N      0.368000000000     0.803190000000     0.995530000000    -0.197898   
N91      N      0.368590000000     0.869020000000     0.864710000000    -0.198006   
N92      N      0.369230000000     0.869400000000     0.626940000000    -0.197978   
N93      N      0.369250000000     0.869270000000     0.364790000000    -0.198074   
N94      N      0.368700000000     0.868840000000     0.126860000000    -0.198147   
N95      N      0.368820000000     0.053720000000     0.997820000000    -0.198039   
N96      N      0.368910000000     0.934560000000     0.996190000000    -0.197948   
Ni1      Ni     0.348650000000     0.869140000000     0.995860000000     1.00311    
Ni2      Ni     0.388420000000     0.868640000000     0.995720000000     1.00419    
Ni3      Ni     0.349480000000     0.869140000000     0.495890000000     1.00451    
Ni4      Ni     0.389240000000     0.869710000000     0.495830000000     1.00223    
Ni5      Ni     0.349510000000     0.119710000000     0.998680000000     1.00376    
Ni6      Ni     0.389280000000     0.119070000000     0.998890000000     1.00334    
Ni7      Ni     0.348660000000     0.119670000000     0.498780000000     1.00325    
Ni8      Ni     0.388430000000     0.120220000000     0.498820000000     1.0036     
Ni9      Ni     0.869320000000     0.639550000000     0.993960000000     1.00309    
Ni10     Ni     0.870190000000     0.599780000000     0.993980000000     1.00364    
Ni11     Ni     0.869100000000     0.639670000000     0.493980000000     1.00388    
Ni12     Ni     0.868150000000     0.599910000000     0.493800000000     1.00219    
Ni13     Ni     0.120410000000     0.639730000000     0.992090000000     1.001      
Ni14     Ni     0.120030000000     0.599990000000     0.992280000000     1.00369    
Ni15     Ni     0.118930000000     0.639240000000     0.492180000000     1.00353    
Ni16     Ni     0.119330000000     0.599510000000     0.492130000000     1.00067    
Ni17     Ni     0.638990000000     0.118910000000     0.987030000000     1.00478    
Ni18     Ni     0.599240000000     0.120160000000     0.987440000000     1.00131    
Ni19     Ni     0.639510000000     0.120610000000     0.487430000000     1.00155    
Ni20     Ni     0.599760000000     0.119390000000     0.487000000000     1.00501    
Ni21     Ni     0.639070000000     0.869680000000     0.993510000000     1.00476    
Ni22     Ni     0.599320000000     0.868420000000     0.992150000000     1.0012     
Ni23     Ni     0.639590000000     0.868950000000     0.492370000000     1.00162    
Ni24     Ni     0.599840000000     0.870140000000     0.493290000000     1.00507    
Ni25     Ni     0.369490000000     0.369390000000     0.035190000000     1.00293    
Ni26     Ni     0.370480000000     0.368330000000     0.955850000000     1.0038     
Ni27     Ni     0.368230000000     0.369930000000     0.531900000000     1.00567    
Ni28     Ni     0.367950000000     0.368990000000     0.452550000000     1.0015     
Ni29     Ni     0.369520000000     0.619560000000     0.952820000000     1.00096    
Ni30     Ni     0.369980000000     0.619190000000     0.032190000000     1.00527    
Ni31     Ni     0.368960000000     0.620190000000     0.453230000000     1.00275    
Ni32     Ni     0.368380000000     0.619640000000     0.532530000000     1.00246    
Ni33     Ni     0.620950000000     0.368510000000     0.034790000000     1.00007    
Ni34     Ni     0.619990000000     0.369560000000     0.955450000000     1.00703    
Ni35     Ni     0.618260000000     0.368910000000     0.532540000000     1.00211    
Ni36     Ni     0.618940000000     0.370060000000     0.453200000000     1.00405    
Ni37     Ni     0.620070000000     0.619800000000     0.034450000000     1.00031    
Ni38     Ni     0.620500000000     0.619230000000     0.955150000000     1.00414    
Ni39     Ni     0.619380000000     0.620180000000     0.535680000000     1.00143    
Ni40     Ni     0.618790000000     0.619900000000     0.456310000000     1.00502    
Ni41     Ni     0.120430000000     0.349650000000     0.992020000000     1.00169    
Ni42     Ni     0.120430000000     0.389380000000     0.991770000000     1.00192    
Ni43     Ni     0.118580000000     0.349610000000     0.491850000000     1.00279    
Ni44     Ni     0.118580000000     0.389350000000     0.491990000000     1.00212    
Ni45     Ni     0.869950000000     0.349530000000     0.993350000000     1.00296    
Ni46     Ni     0.869970000000     0.389270000000     0.993230000000     1.00157    
Ni47     Ni     0.868170000000     0.349550000000     0.493230000000     1.00207    
Ni48     Ni     0.868100000000     0.389290000000     0.493470000000     1.00231    
O1       O      0.350190000000     0.901050000000     0.997180000000    -0.451387   
O2       O      0.349680000000     0.837060000000     0.994650000000    -0.449564   
O3       O      0.350000000000     0.868780000000     0.059780000000    -0.449699   
O4       O      0.349960000000     0.869780000000     0.931900000000    -0.449621   
O5       O      0.387090000000     0.868110000000     0.931900000000    -0.451172   
O6       O      0.387180000000     0.868890000000     0.059600000000    -0.450534   
O7       O      0.386830000000     0.836690000000     0.996700000000    -0.450895   
O8       O      0.387350000000     0.900750000000     0.994650000000    -0.449004   
O9       O      0.350490000000     0.901250000000     0.497080000000    -0.4488     
O10      O      0.351110000000     0.837200000000     0.494800000000    -0.450821   
O11      O      0.350770000000     0.868560000000     0.559710000000    -0.451117   
O12      O      0.350750000000     0.869430000000     0.432020000000    -0.450788   
O13      O      0.387930000000     0.869340000000     0.431900000000    -0.449449   
O14      O      0.387900000000     0.870330000000     0.559800000000    -0.449384   
O15      O      0.388270000000     0.837620000000     0.497050000000    -0.449102   
O16      O      0.387650000000     0.901620000000     0.494550000000    -0.451241   
O17      O      0.350480000000     0.087600000000     0.996970000000    -0.448795   
O18      O      0.351210000000     0.151660000000     0.000340000000    -0.450398   
O19      O      0.350870000000     0.120550000000     0.934880000000    -0.450956   
O20      O      0.350720000000     0.119150000000     0.062540000000    -0.450646   
O21      O      0.387900000000     0.119140000000     0.062820000000    -0.449752   
O22      O      0.388000000000     0.118750000000     0.934900000000    -0.449355   
O23      O      0.388370000000     0.151150000000     0.998350000000    -0.449654   
O24      O      0.387630000000     0.087170000000     0.999570000000    -0.451745   
O25      O      0.350250000000     0.087760000000     0.497520000000    -0.451636   
O26      O      0.349650000000     0.151750000000     0.499890000000    -0.449599   
O27      O      0.349970000000     0.119980000000     0.434860000000    -0.449802   
O28      O      0.350010000000     0.119080000000     0.562750000000    -0.449341   
O29      O      0.387150000000     0.120780000000     0.562650000000    -0.450867   
O30      O      0.387150000000     0.119930000000     0.434950000000    -0.450675   
O31      O      0.386800000000     0.152180000000     0.497770000000    -0.450515   
O32      O      0.387400000000     0.088100000000     0.499940000000    -0.44881    
O33      O      0.901440000000     0.638820000000     0.994330000000    -0.448738   
O34      O      0.837390000000     0.637650000000     0.993660000000    -0.450981   
O35      O      0.869130000000     0.638270000000     0.057830000000    -0.450251   
O36      O      0.869240000000     0.638220000000     0.930050000000    -0.450063   
O37      O      0.869460000000     0.601040000000     0.930090000000    -0.450137   
O38      O      0.871140000000     0.601140000000     0.057880000000    -0.449824   
O39      O      0.838100000000     0.600500000000     0.995900000000    -0.449308   
O40      O      0.902080000000     0.601660000000     0.991970000000    -0.451378   
O41      O      0.901000000000     0.637730000000     0.495640000000    -0.451216   
O42      O      0.837000000000     0.639020000000     0.492430000000    -0.449287   
O43      O      0.868550000000     0.638340000000     0.557850000000    -0.450232   
O44      O      0.869910000000     0.638390000000     0.430070000000    -0.450095   
O45      O      0.867870000000     0.601270000000     0.429930000000    -0.450294   
O46      O      0.868210000000     0.601160000000     0.557740000000    -0.449915   
O47      O      0.836220000000     0.601870000000     0.494350000000    -0.450601   
O48      O      0.900280000000     0.600580000000     0.493170000000    -0.448567   
O49      O      0.088400000000     0.638750000000     0.989520000000    -0.449465   
O50      O      0.152390000000     0.638080000000     0.994650000000    -0.44989    
O51      O      0.121670000000     0.638320000000     0.928200000000    -0.449249   
O52      O      0.119090000000     0.638460000000     0.056010000000    -0.449241   
O53      O      0.121110000000     0.601350000000     0.056110000000    -0.450438   
O54      O      0.118970000000     0.601250000000     0.928400000000    -0.450166   
O55      O      0.152040000000     0.600980000000     0.990240000000    -0.449954   
O56      O      0.088040000000     0.601660000000     0.994450000000    -0.449992   
O57      O      0.086940000000     0.637560000000     0.490100000000    -0.450065   
O58      O      0.150950000000     0.638260000000     0.494150000000    -0.449995   
O59      O      0.119990000000     0.637990000000     0.428340000000    -0.45016    
O60      O      0.117920000000     0.637890000000     0.556050000000    -0.450065   
O61      O      0.120670000000     0.600820000000     0.556020000000    -0.449151   
O62      O      0.117970000000     0.600870000000     0.428220000000    -0.44908    
O63      O      0.151310000000     0.601170000000     0.489440000000    -0.449612   
O64      O      0.087320000000     0.600470000000     0.494830000000    -0.449427   
O65      O      0.636770000000     0.087020000000     0.985700000000    -0.451338   
O66      O      0.638580000000     0.151020000000     0.988310000000    -0.449142   
O67      O      0.637830000000     0.118280000000     0.050930000000    -0.45027    
O68      O      0.637570000000     0.119340000000     0.923200000000    -0.45074    
O69      O      0.600390000000     0.119770000000     0.923470000000    -0.449235   
O70      O      0.600740000000     0.120760000000     0.051330000000    -0.449721   
O71      O      0.601440000000     0.152060000000     0.986250000000    -0.450855   
O72      O      0.599640000000     0.088030000000     0.988710000000    -0.448356   
O73      O      0.639090000000     0.088490000000     0.488960000000    -0.448633   
O74      O      0.637340000000     0.152510000000     0.485950000000    -0.4508     
O75      O      0.638000000000     0.121340000000     0.551320000000    -0.449763   
O76      O      0.638370000000     0.120080000000     0.423460000000    -0.449455   
O77      O      0.601200000000     0.119630000000     0.423180000000    -0.451046   
O78      O      0.600910000000     0.118940000000     0.550910000000    -0.450576   
O79      O      0.600200000000     0.151510000000     0.487850000000    -0.449249   
O80      O      0.601960000000     0.087500000000     0.486030000000    -0.451451   
O81      O      0.636840000000     0.901580000000     0.994030000000    -0.451317   
O82      O      0.638680000000     0.837560000000     0.993370000000    -0.449311   
O83      O      0.638240000000     0.869930000000     0.929480000000    -0.449808   
O84      O      0.637330000000     0.869650000000     0.057220000000    -0.451504   
O85      O      0.600180000000     0.868420000000     0.056250000000    -0.448569   
O86      O      0.601110000000     0.868220000000     0.928370000000    -0.450441   
O87      O      0.601530000000     0.836510000000     0.992160000000    -0.450699   
O88      O      0.599700000000     0.900550000000     0.991700000000    -0.448444   
O89      O      0.639140000000     0.901070000000     0.490850000000    -0.448636   
O90      O      0.637440000000     0.837050000000     0.493870000000    -0.450899   
O91      O      0.637850000000     0.868210000000     0.428510000000    -0.449867   
O92      O      0.638680000000     0.869470000000     0.556350000000    -0.449171   
O93      O      0.601500000000     0.869910000000     0.557100000000    -0.450839   
O94      O      0.600760000000     0.870570000000     0.429360000000    -0.450458   
O95      O      0.600290000000     0.838030000000     0.492430000000    -0.449209   
O96      O      0.602020000000     0.902030000000     0.494220000000    -0.451656   
O97      O      0.369620000000     0.337300000000     0.034120000000    -0.449407   
O98      O      0.369190000000     0.401300000000     0.031060000000    -0.451005   
O99      O      0.337550000000     0.369290000000     0.031160000000    -0.450455   
O100     O      0.401610000000     0.369660000000     0.034000000000    -0.448607   
O101     O      0.402380000000     0.367960000000     0.959890000000    -0.451397   
O102     O      0.338390000000     0.368500000000     0.957010000000    -0.449566   
O103     O      0.370850000000     0.400440000000     0.956950000000    -0.449133   
O104     O      0.370310000000     0.336400000000     0.959960000000    -0.450849   
O105     O      0.367640000000     0.337860000000     0.530640000000    -0.450114   
O106     O      0.368840000000     0.401810000000     0.528050000000    -0.452141   
O107     O      0.336200000000     0.370480000000     0.529690000000    -0.450118   
O108     O      0.400230000000     0.369590000000     0.528850000000    -0.450481   
O109     O      0.399980000000     0.369210000000     0.454650000000    -0.44976    
O110     O      0.335970000000     0.368600000000     0.455590000000    -0.450342   
O111     O      0.367510000000     0.401130000000     0.453910000000    -0.448203   
O112     O      0.368360000000     0.337040000000     0.456480000000    -0.450168   
O113     O      0.368600000000     0.651550000000     0.956050000000    -0.449925   
O114     O      0.370200000000     0.587510000000     0.954790000000    -0.449416   
O115     O      0.337570000000     0.618630000000     0.955950000000    -0.450213   
O116     O      0.401620000000     0.620490000000     0.954940000000    -0.448309   
O117     O      0.401920000000     0.619130000000     0.029090000000    -0.451168   
O118     O      0.337910000000     0.619230000000     0.030130000000    -0.449794   
O119     O      0.370190000000     0.587200000000     0.028990000000    -0.450692   
O120     O      0.369970000000     0.651220000000     0.030180000000    -0.450517   
O121     O      0.368270000000     0.652160000000     0.456710000000    -0.450396   
O122     O      0.369660000000     0.588170000000     0.454920000000    -0.450273   
O123     O      0.336900000000     0.619480000000     0.454940000000    -0.449296   
O124     O      0.400950000000     0.620900000000     0.456870000000    -0.449726   
O125     O      0.400370000000     0.618100000000     0.530850000000    -0.449986   
O126     O      0.336440000000     0.621190000000     0.529040000000    -0.450376   
O127     O      0.366840000000     0.587670000000     0.528890000000    -0.449772   
O128     O      0.369940000000     0.651670000000     0.530810000000    -0.449331   
O129     O      0.652860000000     0.368800000000     0.030850000000    -0.450809   
O130     O      0.588850000000     0.368050000000     0.033570000000    -0.448812   
O131     O      0.621400000000     0.336540000000     0.030620000000    -0.44936    
O132     O      0.620680000000     0.400660000000     0.033650000000    -0.44779    
O133     O      0.619490000000     0.401430000000     0.959510000000    -0.452389   
O134     O      0.620330000000     0.337500000000     0.956480000000    -0.450481   
O135     O      0.588070000000     0.369310000000     0.959430000000    -0.451546   
O136     O      0.652080000000     0.370010000000     0.956720000000    -0.449801   
O137     O      0.650340000000     0.368660000000     0.530850000000    -0.44944    
O138     O      0.586330000000     0.368980000000     0.529060000000    -0.451115   
O139     O      0.617970000000     0.336970000000     0.528270000000    -0.450405   
O140     O      0.618340000000     0.401050000000     0.531570000000    -0.448306   
O141     O      0.619740000000     0.401940000000     0.457440000000    -0.451467   
O142     O      0.618330000000     0.337980000000     0.454120000000    -0.449799   
O143     O      0.586840000000     0.370800000000     0.454950000000    -0.449039   
O144     O      0.650890000000     0.369480000000     0.456680000000    -0.450761   
O145     O      0.621770000000     0.651750000000     0.030950000000    -0.449639   
O146     O      0.618420000000     0.587790000000     0.032780000000    -0.449259   
O147     O      0.652100000000     0.618120000000     0.032510000000    -0.448776   
O148     O      0.588090000000     0.621460000000     0.031030000000    -0.449034   
O149     O      0.588480000000     0.618690000000     0.957050000000    -0.450311   
O150     O      0.652460000000     0.619740000000     0.958400000000    -0.450872   
O151     O      0.621060000000     0.587240000000     0.958780000000    -0.45007    
O152     O      0.620000000000     0.651280000000     0.956860000000    -0.449691   
O153     O      0.619130000000     0.652180000000     0.532630000000    -0.449968   
O154     O      0.619800000000     0.588140000000     0.533550000000    -0.449467   
O155     O      0.651350000000     0.620410000000     0.532280000000    -0.45021    
O156     O      0.587270000000     0.620000000000     0.533790000000    -0.448552   
O157     O      0.586900000000     0.618740000000     0.459630000000    -0.451699   
O158     O      0.650850000000     0.621050000000     0.458120000000    -0.449829   
O159     O      0.619670000000     0.587920000000     0.459340000000    -0.450443   
O160     O      0.617660000000     0.651930000000     0.458500000000    -0.449872   
O161     O      0.088450000000     0.350970000000     0.994960000000    -0.449808   
O162     O      0.152430000000     0.350960000000     0.989110000000    -0.449615   
O163     O      0.121890000000     0.351050000000     0.055870000000    -0.449396   
O164     O      0.118950000000     0.350880000000     0.928140000000    -0.449343   
O165     O      0.121290000000     0.387980000000     0.927900000000    -0.449811   
O166     O      0.119540000000     0.388150000000     0.055690000000    -0.449488   
O167     O      0.152450000000     0.388070000000     0.993430000000    -0.449528   
O168     O      0.088420000000     0.388060000000     0.990050000000    -0.449588   
O169     O      0.086580000000     0.350930000000     0.493810000000    -0.450107   
O170     O      0.150580000000     0.350930000000     0.489980000000    -0.449868   
O171     O      0.119570000000     0.350870000000     0.555740000000    -0.449944   
O172     O      0.117630000000     0.350990000000     0.427950000000    -0.449646   
O173     O      0.119990000000     0.388090000000     0.428120000000    -0.449597   
O174     O      0.117210000000     0.387960000000     0.555860000000    -0.449638   
O175     O      0.150570000000     0.388030000000     0.494720000000    -0.449766   
O176     O      0.086590000000     0.388030000000     0.489220000000    -0.449954   
O177     O      0.901960000000     0.350840000000     0.991680000000    -0.450015   
O178     O      0.837950000000     0.350870000000     0.994900000000    -0.450126   
O179     O      0.869110000000     0.350790000000     0.929470000000    -0.44987    
O180     O      0.870770000000     0.350910000000     0.057260000000    -0.449646   
O181     O      0.868440000000     0.388010000000     0.057090000000    -0.449287   
O182     O      0.871480000000     0.387890000000     0.929370000000    -0.449437   
O183     O      0.837980000000     0.387960000000     0.990210000000    -0.449846   
O184     O      0.901960000000     0.387940000000     0.996260000000    -0.449605   
O185     O      0.900150000000     0.350930000000     0.490160000000    -0.449646   
O186     O      0.836190000000     0.350800000000     0.496290000000    -0.449836   
O187     O      0.866640000000     0.350950000000     0.429380000000    -0.449432   
O188     O      0.869720000000     0.350800000000     0.557110000000    -0.449587   
O189     O      0.867310000000     0.387890000000     0.557340000000    -0.449907   
O190     O      0.868910000000     0.388060000000     0.429550000000    -0.44946    
O191     O      0.836080000000     0.387910000000     0.491970000000    -0.449532   
O192     O      0.900110000000     0.388030000000     0.495060000000    -0.449709   


