data_structure

_audit_creation_method RASPA-1.0
_audit_creation_date 2023-6-5
_audit_author_name 'Poobodin Mano'

_cell_length_a    48.6665
_cell_length_b    48.9856
_cell_length_c    29.3891
_cell_angle_alpha 89.9765
_cell_angle_beta  90.0235
_cell_angle_gamma 119.978
_cell_volume      60689.2

_symmetry_cell_setting          triclinic
_symmetry_space_group_name_Hall 'P 1'
_symmetry_space_group_name_H-M  'P 1'
_symmetry_Int_Tables_number     1

_symmetry_equiv_pos_as_xyz 'x,y,z'

loop_
_atom_site_label
_atom_site_type_symbol
_atom_site_fract_x
_atom_site_fract_y
_atom_site_fract_z
_atom_site_charge
C1       C      0.846570000000     0.658500000000     0.549710000000     0.436168   
C2       C      0.815670000000     0.653950000000     0.716850000000     0.440971   
C3       C      0.773100000000     0.628980000000     0.610320000000     0.435463   
C4       C      0.889860000000     0.683930000000     0.656240000000     0.437213   
C5       C      0.151190000000     0.811190000000     0.874620000000     0.432339   
C6       C      0.186040000000     0.835680000000     0.708290000000     0.439273   
C7       C      0.225300000000     0.853150000000     0.819500000000     0.44187    
C8       C      0.110130000000     0.792600000000     0.766820000000     0.442392   
C9       C      0.488520000000     0.989190000000     0.039900000000     0.433781   
C10      C      0.518320000000     0.993520000000     0.871780000000     0.438219   
C11      C      0.561660000000     0.019020000000     0.977620000000     0.440756   
C12      C      0.444700000000     0.963030000000     0.932730000000     0.436678   
C13      C      0.149510000000     0.344060000000     0.388980000000     0.441361   
C14      C      0.176220000000     0.352790000000     0.219750000000     0.436189   
C15      C      0.222400000000     0.378090000000     0.323380000000     0.442309   
C16      C      0.104190000000     0.318980000000     0.285840000000     0.441525   
C17      C      0.842540000000     0.177230000000     0.057590000000     0.433537   
C18      C      0.817020000000     0.152930000000     0.226900000000     0.433352   
C19      C      0.771480000000     0.130940000000     0.120830000000     0.436775   
C20      C      0.888240000000     0.199530000000     0.163100000000     0.437058   
C21      C      0.479140000000     0.487860000000     0.562360000000     0.439004   
C22      C      0.508810000000     0.511350000000     0.394030000000     0.433135   
C23      C      0.553200000000     0.526520000000     0.498650000000     0.441284   
C24      C      0.435910000000     0.473950000000     0.456090000000     0.435634   
C25      C      0.163740000000     0.346350000000     0.719810000000     0.437352   
C26      C      0.184740000000     0.341350000000     0.887560000000     0.445831   
C27      C      0.205380000000     0.314320000000     0.777800000000     0.439048   
C28      C      0.147280000000     0.370490000000     0.832850000000     0.44415    
C29      C      0.336150000000     0.148650000000     0.721740000000     0.436743   
C30      C      0.327840000000     0.177740000000     0.556340000000     0.435942   
C31      C      0.307090000000     0.195530000000     0.667630000000     0.431689   
C32      C      0.356690000000     0.131460000000     0.608540000000     0.437065   
C33      C      0.998800000000     0.492940000000     0.062510000000     0.443726   
C34      C      0.004680000000     0.504040000000     0.889830000000     0.43667    
C35      C      0.971760000000     0.525420000000     0.988810000000     0.448225   
C36      C      0.034740000000     0.469130000000     0.968730000000     0.432036   
C37      C      0.658520000000     0.837690000000     0.215010000000     0.439353   
C38      C      0.668190000000     0.817810000000     0.383660000000     0.437635   
C39      C      0.693130000000     0.797600000000     0.276630000000     0.437991   
C40      C      0.634620000000     0.855580000000     0.324130000000     0.436788   
C41      C      0.838340000000     0.655280000000     0.219440000000     0.441288   
C42      C      0.821140000000     0.661330000000     0.049040000000     0.435409   
C43      C      0.800640000000     0.687640000000     0.153640000000     0.431353   
C44      C      0.860000000000     0.628750000000     0.114950000000     0.432314   
C45      C      0.480100000000     0.997300000000     0.372320000000     0.437979   
C46      C      0.504700000000     0.988720000000     0.539550000000     0.433516   
C47      C      0.522220000000     0.964770000000     0.430540000000     0.432788   
C48      C      0.462680000000     0.021060000000     0.481700000000     0.431148   
C49      C      0.329900000000     0.146800000000     0.054640000000     0.431763   
C50      C      0.333640000000     0.174430000000     0.223590000000     0.432122   
C51      C      0.360260000000     0.218740000000     0.116640000000     0.433831   
C52      C      0.303360000000     0.102270000000     0.161770000000     0.433727   
C53      C      0.485600000000     0.479220000000     0.894700000000     0.432339   
C54      C      0.513550000000     0.511440000000     0.061520000000     0.439982   
C55      C      0.527490000000     0.552270000000     0.949510000000     0.44076    
C56      C      0.471330000000     0.438400000000     0.005850000000     0.439473   
C57      C      0.177620000000     0.836640000000     0.376090000000     0.434644   
C58      C      0.152410000000     0.812260000000     0.207040000000     0.438075   
C59      C      0.134660000000     0.765130000000     0.311550000000     0.439627   
C60      C      0.194650000000     0.881910000000     0.268580000000     0.437714   
C61      C      0.986110000000     0.477830000000     0.392460000000     0.436703   
C62      C      0.003670000000     0.514520000000     0.557970000000     0.440566   
C63      C      0.025280000000     0.552700000000     0.447280000000     0.432594   
C64      C      0.963720000000     0.438840000000     0.504770000000     0.440909   
C65      C      0.813900000000     0.142340000000     0.559670000000     0.437608   
C66      C      0.841060000000     0.180000000000     0.725020000000     0.437025   
C67      C      0.855590000000     0.218220000000     0.614650000000     0.434281   
C68      C      0.799600000000     0.104440000000     0.671970000000     0.439059   
C69      C      0.666310000000     0.839830000000     0.882470000000     0.434901   
C70      C      0.662300000000     0.810320000000     0.714760000000     0.434698   
C71      C      0.636070000000     0.767470000000     0.822680000000     0.434908   
C72      C      0.692490000000     0.883400000000     0.775090000000     0.434087   
C73      C      0.759100000000     0.062690000000     0.718560000000     0.180935   
C74      C      0.796500000000     0.054970000000     0.676580000000     0.0774555  
C75      C      0.742840000000     0.030660000000     0.730240000000    -0.127368   
C76      C      0.704780000000     0.959320000000     0.733630000000    -0.083793   
C77      C      0.781410000000     0.023340000000     0.689440000000    -0.0984158  
C78      C      0.737920000000     0.977180000000     0.731190000000     0.0280846  
C79      C      0.754030000000     0.010690000000     0.716180000000     0.0525693  
C80      C      0.690020000000     0.928110000000     0.748640000000     0.0711179  
C81      C      0.739970000000     0.931570000000     0.758850000000     0.0706384  
C82      C      0.755510000000     0.962880000000     0.744070000000    -0.0838796  
C83      C      0.914880000000     0.392300000000     0.530560000000     0.182425   
C84      C      0.964270000000     0.393400000000     0.530610000000     0.0762581  
C85      C      0.899410000000     0.359900000000     0.540790000000    -0.132932   
C86      C      0.871320000000     0.297970000000     0.589740000000    -0.0829498  
C87      C      0.949620000000     0.362190000000     0.545340000000    -0.0982255  
C88      C      0.900470000000     0.311130000000     0.566590000000     0.0263324  
C89      C      0.916640000000     0.344600000000     0.549990000000     0.0541631  
C90      C      0.856460000000     0.266780000000     0.604730000000     0.0704697  
C91      C      0.899280000000     0.261320000000     0.577680000000     0.0701861  
C92      C      0.914170000000     0.292030000000     0.560430000000    -0.0826551  
C93      C      0.086640000000     0.714640000000     0.320450000000     0.18456    
C94      C      0.136430000000     0.722990000000     0.347220000000     0.0780686  
C95      C      0.071420000000     0.685020000000     0.341960000000    -0.134078   
C96      C      0.041920000000     0.630330000000     0.407180000000    -0.0832466  
C97      C      0.121810000000     0.693610000000     0.368430000000    -0.0993563  
C98      C      0.072670000000     0.642800000000     0.389510000000     0.0260116  
C99      C      0.088830000000     0.674290000000     0.366680000000     0.0546516  
C100     C      0.026580000000     0.600340000000     0.426710000000     0.0700428  
C101     C      0.071780000000     0.595050000000     0.414220000000     0.0693838  
C102     C      0.087580000000     0.624690000000     0.393550000000    -0.0833375  
C103     C      0.525430000000     0.592130000000     0.903450000000     0.184579   
C104     C      0.573650000000     0.601260000000     0.937810000000     0.0793045  
C105     C      0.541030000000     0.623190000000     0.886890000000    -0.13413    
C106     C      0.573890000000     0.692810000000     0.869760000000    -0.0833899  
C107     C      0.589590000000     0.632050000000     0.921220000000    -0.0991615  
C108     C      0.590040000000     0.676090000000     0.876110000000     0.0264614  
C109     C      0.573360000000     0.643510000000     0.895390000000     0.0552039  
C110     C      0.589420000000     0.722880000000     0.850650000000     0.0708775  
C111     C      0.637140000000     0.721240000000     0.845210000000     0.070736   
C112     C      0.622080000000     0.690720000000     0.863180000000    -0.0826804  
C113     C      0.235840000000     0.923620000000     0.223090000000     0.183772   
C114     C      0.198940000000     0.932060000000     0.265270000000     0.0764814  
C115     C      0.252340000000     0.955700000000     0.211130000000    -0.134589   
C116     C      0.290800000000     0.026810000000     0.205730000000    -0.0833396  
C117     C      0.214270000000     0.963670000000     0.252100000000    -0.0998712  
C118     C      0.257660000000     0.009270000000     0.209090000000     0.0253834  
C119     C      0.241460000000     0.975940000000     0.224980000000     0.0551449  
C120     C      0.305630000000     0.057700000000     0.189320000000     0.0701776  
C121     C      0.255800000000     0.054570000000     0.179590000000     0.0697705  
C122     C      0.240180000000     0.023580000000     0.195730000000    -0.0833966  
C123     C      0.472330000000     0.396860000000     0.049240000000     0.183929   
C124     C      0.424780000000     0.389220000000     0.014480000000     0.0787104  
C125     C      0.456370000000     0.365190000000     0.063280000000    -0.133795   
C126     C      0.423160000000     0.294940000000     0.074650000000    -0.08333    
C127     C      0.408490000000     0.357820000000     0.028560000000    -0.098884   
C128     C      0.407130000000     0.311900000000     0.069670000000     0.0262894  
C129     C      0.424200000000     0.345260000000     0.053220000000     0.0547706  
C130     C      0.407290000000     0.264180000000     0.091380000000     0.0705248  
C131     C      0.359450000000     0.265570000000     0.096830000000     0.0702953  
C132     C      0.374820000000     0.296730000000     0.081280000000    -0.0827713  
C133     C      0.689380000000     0.838720000000     0.459060000000     0.182813   
C134     C      0.647640000000     0.785710000000     0.448970000000     0.0743476  
C135     C      0.690210000000     0.832680000000     0.505660000000    -0.135112   
C136     C      0.691070000000     0.806450000000     0.601250000000    -0.0844864  
C137     C      0.646460000000     0.780260000000     0.495700000000    -0.101128   
C138     C      0.664930000000     0.800400000000     0.574390000000     0.0258847  
C139     C      0.667960000000     0.803860000000     0.524420000000     0.0549859  
C140     C      0.689180000000     0.807960000000     0.648510000000     0.0703639  
C141     C      0.636040000000     0.797160000000     0.642980000000     0.0705711  
C142     C      0.636890000000     0.794760000000     0.595710000000    -0.0839511  
C143     C      0.629560000000     0.826100000000     0.143530000000     0.18445    
C144     C      0.684530000000     0.864170000000     0.147640000000     0.0777479  
C145     C      0.631360000000     0.827440000000     0.095700000000    -0.134124   
C146     C      0.638500000000     0.846440000000     0.995600000000    -0.0835612  
C147     C      0.686490000000     0.866690000000     0.100440000000    -0.100367   
C148     C      0.662620000000     0.847970000000     0.023390000000     0.0265893  
C149     C      0.660040000000     0.847490000000     0.073800000000     0.0552908  
C150     C      0.640640000000     0.844920000000     0.948340000000     0.070611   
C151     C      0.690350000000     0.847370000000     0.955350000000     0.0710469  
C152     C      0.689010000000     0.848990000000     0.002610000000    -0.083383   
C153     C      0.697350000000     0.750420000000     0.271320000000     0.184242   
C154     C      0.735720000000     0.798560000000     0.237030000000     0.0778119  
C155     C      0.711800000000     0.734860000000     0.250540000000    -0.133092   
C156     C      0.737340000000     0.702920000000     0.189750000000    -0.0825962  
C157     C      0.750550000000     0.783600000000     0.216540000000    -0.0985227  
C158     C      0.754620000000     0.734900000000     0.202000000000     0.0259551  
C159     C      0.738580000000     0.751250000000     0.222720000000     0.0544122  
C160     C      0.752990000000     0.687570000000     0.173050000000     0.0689223  
C161     C      0.802360000000     0.734950000000     0.177550000000     0.0696154  
C162     C      0.787580000000     0.750850000000     0.195220000000    -0.0827219  
C163     C      0.591850000000     0.854900000000     0.367000000000     0.183057   
C164     C      0.631150000000     0.901740000000     0.330780000000     0.0768699  
C165     C      0.575350000000     0.870480000000     0.379580000000    -0.133872   
C166     C      0.536790000000     0.902720000000     0.388230000000    -0.0830846  
C167     C      0.615340000000     0.917740000000     0.343640000000    -0.0987277  
C168     C      0.569930000000     0.918910000000     0.383570000000     0.0262306  
C169     C      0.586920000000     0.902150000000     0.368190000000     0.0542159  
C170     C      0.521340000000     0.918280000000     0.404580000000     0.0700977  
C171     C      0.570300000000     0.966040000000     0.410240000000     0.0704475  
C172     C      0.586610000000     0.951040000000     0.394900000000    -0.0826098  
C173     C      0.035300000000     0.532050000000     0.626700000000     0.185383   
C174     C      0.980020000000     0.514410000000     0.628020000000     0.0781784  
C175     C      0.035330000000     0.530110000000     0.674400000000    -0.135301   
C176     C      0.031340000000     0.538140000000     0.776410000000    -0.0839539  
C177     C      0.979760000000     0.513380000000     0.675350000000    -0.100783   
C178     C      0.006610000000     0.516120000000     0.749100000000     0.0263311  
C179     C      0.007290000000     0.520010000000     0.699000000000     0.0554445  
C180     C      0.030380000000     0.533670000000     0.823400000000     0.0708216  
C181     C      0.981100000000     0.486170000000     0.817000000000     0.0713169  
C182     C      0.981310000000     0.489910000000     0.769950000000    -0.083701   
C183     C      0.996640000000     0.512320000000     0.137870000000     0.186851   
C184     C      0.990850000000     0.461400000000     0.125800000000     0.0805404  
C185     C      0.993880000000     0.506270000000     0.184990000000    -0.135625   
C186     C      0.961390000000     0.474490000000     0.274500000000    -0.0847175  
C187     C      0.987970000000     0.455260000000     0.172350000000    -0.101537   
C188     C      0.985160000000     0.471940000000     0.251630000000     0.0260479  
C189     C      0.989310000000     0.477810000000     0.202250000000     0.0570969  
C190     C      0.960730000000     0.474170000000     0.321870000000     0.0712742  
C191     C      0.005620000000     0.467250000000     0.324250000000     0.0706908  
C192     C      0.006670000000     0.466990000000     0.276730000000    -0.0840783  
C193     C      0.970960000000     0.559880000000     0.046450000000     0.185152   
C194     C      0.926490000000     0.530240000000     0.997520000000     0.0805174  
C195     C      0.954420000000     0.573480000000     0.067080000000    -0.13771    
C196     C      0.924170000000     0.614540000000     0.079850000000    -0.0827895  
C197     C      0.910030000000     0.543680000000     0.017380000000    -0.100435   
C198     C      0.907600000000     0.582040000000     0.071480000000     0.0250402  
C199     C      0.924160000000     0.566050000000     0.051960000000     0.0560812  
C200     C      0.907990000000     0.629670000000     0.095200000000     0.0694285  
C201     C      0.859500000000     0.581150000000     0.095830000000     0.0694858  
C202     C      0.874920000000     0.565310000000     0.080210000000    -0.0828831  
C203     C      0.314510000000     0.115300000000     0.788880000000     0.183304   
C204     C      0.360970000000     0.165760000000     0.793580000000     0.0764049  
C205     C      0.312290000000     0.114240000000     0.836760000000    -0.134527   
C206     C      0.305230000000     0.133730000000     0.934850000000    -0.0832433  
C207     C      0.360320000000     0.164200000000     0.841000000000    -0.0996795  
C208     C      0.332870000000     0.138220000000     0.913480000000     0.0257285  
C209     C      0.335170000000     0.138840000000     0.863090000000     0.0546955  
C210     C      0.304370000000     0.136010000000     0.982230000000     0.0697156  
C211     C      0.356830000000     0.144950000000     0.987940000000     0.069451   
C212     C      0.358730000000     0.143530000000     0.940590000000    -0.083598   
C213     C      0.349910000000     0.210080000000     0.488350000000     0.182875   
C214     C      0.303030000000     0.159880000000     0.484720000000     0.0752458  
C215     C      0.352190000000     0.210370000000     0.440490000000    -0.134508   
C216     C      0.358870000000     0.189430000000     0.343120000000    -0.083431   
C217     C      0.303790000000     0.160680000000     0.437300000000    -0.100236   
C218     C      0.331320000000     0.185310000000     0.364350000000     0.0256565  
C219     C      0.329140000000     0.185500000000     0.414710000000     0.0544115  
C220     C      0.359500000000     0.186300000000     0.295850000000     0.069696   
C221     C      0.306960000000     0.177120000000     0.289980000000     0.069554   
C222     C      0.305310000000     0.179450000000     0.337190000000    -0.0838829  
C223     C      0.353660000000     0.089500000000     0.560580000000     0.182655   
C224     C      0.401280000000     0.125060000000     0.599400000000     0.0771467  
C225     C      0.368290000000     0.072650000000     0.544940000000    -0.133184   
C226     C      0.400370000000     0.033650000000     0.530320000000    -0.0826033  
C227     C      0.416440000000     0.109310000000     0.582840000000    -0.0990964  
C228     C      0.416330000000     0.066490000000     0.535470000000     0.0258752  
C229     C      0.400040000000     0.082740000000     0.555220000000     0.0543156  
C230     C      0.416030000000     0.018900000000     0.511540000000     0.0690787  
C231     C      0.462940000000     0.068240000000     0.502500000000     0.0691614  
C232     C      0.447960000000     0.083750000000     0.520920000000    -0.0830368  
C233     C      0.150690000000     0.408110000000     0.889620000000     0.181332   
C234     C      0.101530000000     0.371490000000     0.854650000000     0.0790302  
C235     C      0.134460000000     0.420360000000     0.914940000000    -0.135074   
C236     C      0.101000000000     0.456980000000     0.938490000000    -0.0820577  
C237     C      0.085590000000     0.383960000000     0.878340000000    -0.0996652  
C238     C      0.085320000000     0.424330000000     0.930750000000     0.0252208  
C239     C      0.101940000000     0.409030000000     0.908550000000     0.0548435  
C240     C      0.084050000000     0.471400000000     0.953730000000     0.0689857  
C241     C      0.036540000000     0.422080000000     0.955330000000     0.0698847  
C242     C      0.052860000000     0.406840000000     0.941190000000    -0.0825486  
C243     C      0.247640000000     0.313460000000     0.734570000000     0.183169   
C244     C      0.208650000000     0.267930000000     0.773760000000     0.0774795  
C245     C      0.263390000000     0.296970000000     0.722390000000    -0.133036   
C246     C      0.299020000000     0.260870000000     0.713880000000    -0.0827538  
C247     C      0.223370000000     0.250970000000     0.760670000000    -0.0990289  
C248     C      0.265980000000     0.246980000000     0.717810000000     0.0259745  
C249     C      0.251070000000     0.265350000000     0.734570000000     0.0544712  
C250     C      0.312400000000     0.243430000000     0.696830000000     0.0691082  
C251     C      0.261320000000     0.198680000000     0.687740000000     0.0699052  
C252     C      0.247180000000     0.215450000000     0.704360000000    -0.0830831  
C253     C      0.462860000000     0.498330000000     0.635550000000     0.183253   
C254     C      0.479110000000     0.460090000000     0.628040000000     0.0772742  
C255     C      0.463530000000     0.495860000000     0.683230000000    -0.134076   
C256     C      0.451090000000     0.474170000000     0.782060000000    -0.0837404  
C257     C      0.478790000000     0.456500000000     0.675080000000    -0.100129   
C258     C      0.473690000000     0.473150000000     0.753710000000     0.0257801  
C259     C      0.471850000000     0.475100000000     0.703390000000     0.0546323  
C260     C      0.454630000000     0.474690000000     0.829300000000     0.0682215  
C261     C      0.501660000000     0.471960000000     0.821270000000     0.0700194  
C262     C      0.498790000000     0.471310000000     0.773940000000    -0.0832333  
C263     C      0.541810000000     0.513080000000     0.131970000000     0.179797   
C264     C      0.500740000000     0.526190000000     0.131200000000     0.0755184  
C265     C      0.544590000000     0.518020000000     0.179340000000    -0.133636   
C266     C      0.522770000000     0.498190000000     0.275890000000    -0.0842263  
C267     C      0.502620000000     0.530040000000     0.178330000000    -0.0988129  
C268     C      0.522700000000     0.523400000000     0.253570000000     0.0258891  
C269     C      0.524090000000     0.525030000000     0.203070000000     0.0543058  
C270     C      0.518820000000     0.495010000000     0.322890000000     0.0698959  
C271     C      0.515900000000     0.541820000000     0.326990000000     0.0692714  
C272     C      0.519470000000     0.545540000000     0.279700000000    -0.0836184  
C273     C      0.875070000000     0.194720000000     0.792150000000     0.183326   
C274     C      0.822300000000     0.185530000000     0.796670000000     0.0760912  
C275     C      0.876350000000     0.194130000000     0.840050000000    -0.134586   
C276     C      0.843170000000     0.207410000000     0.943180000000    -0.0837151  
C277     C      0.823890000000     0.186900000000     0.844010000000    -0.100018   
C278     C      0.851400000000     0.188890000000     0.916590000000     0.0260249  
C279     C      0.850630000000     0.190080000000     0.866220000000     0.0549513  
C280     C      0.841610000000     0.204160000000     0.990520000000     0.0699823  
C281     C      0.856230000000     0.164770000000     0.985740000000     0.0701531  
C282     C      0.858680000000     0.167920000000     0.938410000000    -0.0833     
C283     C      0.824450000000     0.124220000000     0.488460000000     0.183903   
C284     C      0.787540000000     0.142520000000     0.492140000000     0.0771383  
C285     C      0.824100000000     0.125630000000     0.440630000000    -0.13371    
C286     C      0.809130000000     0.117320000000     0.339530000000    -0.0829849  
C287     C      0.785880000000     0.142850000000     0.444750000000    -0.0991095  
C288     C      0.806000000000     0.138700000000     0.367720000000     0.0261334  
C289     C      0.805170000000     0.135520000000     0.418280000000     0.0545291  
C290     C      0.812100000000     0.122040000000     0.292430000000     0.0697846  
C291     C      0.807740000000     0.167870000000     0.299970000000     0.0702075  
C292     C      0.804890000000     0.163960000000     0.347170000000    -0.0828486  
C293     C      0.133360000000     0.315120000000     0.460010000000     0.184864   
C294     C      0.151490000000     0.370130000000     0.457370000000     0.0782095  
C295     C      0.135310000000     0.316610000000     0.507660000000    -0.135564   
C296     C      0.126120000000     0.322910000000     0.608020000000    -0.0844153  
C297     C      0.152480000000     0.371850000000     0.504670000000    -0.101074   
C298     C      0.148670000000     0.346950000000     0.580430000000     0.0262821  
C299     C      0.145300000000     0.345130000000     0.530290000000     0.0557126  
C300     C      0.131130000000     0.323550000000     0.654780000000     0.0709003  
C301     C      0.179560000000     0.371900000000     0.647900000000     0.0700601  
C302     C      0.175320000000     0.371970000000     0.600970000000    -0.0842233  
C303     C      0.196650000000     0.374530000000     0.953260000000     0.188159   
C304     C      0.169580000000     0.318580000000     0.960230000000     0.0808622  
C305     C      0.198740000000     0.377340000000     0.000870000000    -0.138476   
C306     C      0.182100000000     0.376400000000     0.100420000000    -0.0832111  
C307     C      0.169820000000     0.320810000000     0.007390000000    -0.101243   
C308     C      0.185620000000     0.352830000000     0.078810000000     0.0258616  
C309     C      0.185110000000     0.350380000000     0.028400000000     0.056801   
C310     C      0.180260000000     0.376800000000     0.147780000000     0.0703276  
C311     C      0.185880000000     0.331530000000     0.153020000000     0.0706835  
C312     C      0.188330000000     0.330740000000     0.105870000000    -0.0839384  
C313     C      0.052930000000     0.271450000000     0.283320000000     0.185196   
C314     C      0.061510000000     0.318750000000     0.247610000000     0.0786991  
C315     C      0.023170000000     0.254880000000     0.262160000000    -0.135368   
C316     C      0.969300000000     0.221980000000     0.195960000000    -0.0841058  
C317     C      0.031700000000     0.302850000000     0.227240000000    -0.10002    
C318     C      0.980710000000     0.252750000000     0.211820000000     0.0269235  
C319     C      0.012440000000     0.270400000000     0.233520000000     0.0555662  
C320     C      0.938570000000     0.204770000000     0.178790000000     0.0713995  
C321     C      0.930580000000     0.248210000000     0.190350000000     0.071369   
C322     C      0.961110000000     0.266000000000     0.208140000000    -0.083748   
C323     C      0.273740000000     0.381960000000     0.327110000000     0.186258   
C324     C      0.264120000000     0.419920000000     0.363170000000     0.0790688  
C325     C      0.303300000000     0.395000000000     0.348960000000    -0.13509    
C326     C      0.357310000000     0.415210000000     0.414660000000    -0.0835443  
C327     C      0.293440000000     0.433320000000     0.384970000000    -0.100023   
C328     C      0.344620000000     0.434280000000     0.401970000000     0.0263116  
C329     C      0.313250000000     0.420530000000     0.378770000000     0.0554664  
C330     C      0.387650000000     0.428740000000     0.433500000000     0.0705429  
C331     C      0.392500000000     0.479320000000     0.430580000000     0.0702384  
C332     C      0.362570000000     0.466690000000     0.410730000000    -0.0839388  
C333     C      0.536730000000     0.021220000000     0.800080000000     0.183976   
C334     C      0.514400000000     0.965610000000     0.804180000000     0.0773046  
C335     C      0.534720000000     0.019330000000     0.752360000000    -0.134358   
C336     C      0.542210000000     0.011910000000     0.651800000000    -0.0835988  
C337     C      0.513350000000     0.963390000000     0.756750000000    -0.0991274  
C338     C      0.519360000000     0.988240000000     0.679690000000     0.0267313  
C339     C      0.522620000000     0.990280000000     0.730200000000     0.0552342  
C340     C      0.537320000000     0.011230000000     0.604890000000     0.0702115  
C341     C      0.488530000000     0.963370000000     0.611800000000     0.0702756  
C342     C      0.492570000000     0.963420000000     0.658930000000    -0.0828925  
C343     C      0.491300000000     0.025280000000     0.300460000000     0.184239   
C344     C      0.455650000000     0.970030000000     0.304460000000     0.0773181  
C345     C      0.491730000000     0.023250000000     0.252720000000    -0.134314   
C346     C      0.477070000000     0.015470000000     0.151540000000    -0.0836033  
C347     C      0.454880000000     0.967710000000     0.257100000000    -0.0994837  
C348     C      0.475360000000     0.991800000000     0.180200000000     0.0264485  
C349     C      0.473870000000     0.994270000000     0.230600000000     0.0550959  
C350     C      0.480670000000     0.013810000000     0.104620000000     0.0698787  
C351     C      0.479840000000     0.965310000000     0.113210000000     0.0699114  
C352     C      0.476290000000     0.966260000000     0.160310000000    -0.0829327  
C353     C      0.613480000000     0.065560000000     0.985020000000     0.184938   
C354     C      0.601870000000     0.016920000000     0.019460000000     0.0783492  
C355     C      0.642110000000     0.080910000000     0.009350000000    -0.135187   
C356     C      0.692060000000     0.110460000000     0.082190000000    -0.0842319  
C357     C      0.630590000000     0.031560000000     0.042850000000    -0.0999665  
C358     C      0.681180000000     0.080340000000     0.064110000000     0.0268063  
C359     C      0.650710000000     0.064050000000     0.038900000000     0.055749   
C360     C      0.721870000000     0.126600000000     0.102560000000     0.0714133  
C361     C      0.729790000000     0.083220000000     0.089940000000     0.0713854  
C362     C      0.700150000000     0.066460000000     0.069070000000    -0.0836548  
C363     C      0.204390000000     0.825210000000     0.636990000000     0.184311   
C364     C      0.186620000000     0.862410000000     0.641130000000     0.0775969  
C365     C      0.203600000000     0.826270000000     0.589160000000    -0.134148   
C366     C      0.213470000000     0.843660000000     0.488420000000    -0.0834734  
C367     C      0.186880000000     0.864720000000     0.593890000000    -0.100181   
C368     C      0.191340000000     0.845510000000     0.516820000000     0.026292   
C369     C      0.194230000000     0.845670000000     0.567220000000     0.0549968  
C370     C      0.209050000000     0.841630000000     0.441250000000     0.0701182  
C371     C      0.161900000000     0.844100000000     0.449540000000     0.0707628  
C372     C      0.165580000000     0.846170000000     0.496690000000    -0.0835143  
C373     C      0.127440000000     0.817140000000     0.138020000000     0.181649   
C374     C      0.162960000000     0.796940000000     0.136030000000     0.0748865  
C375     C      0.121860000000     0.811100000000     0.091190000000    -0.134653   
C376     C      0.137980000000     0.825750000000     0.992350000000    -0.0843286  
C377     C      0.159320000000     0.792890000000     0.089030000000    -0.0996032  
C378     C      0.138390000000     0.800850000000     0.015270000000     0.0258739  
C379     C      0.138920000000     0.800390000000     0.065890000000     0.0539088  
C380     C      0.140920000000     0.828040000000     0.945170000000     0.0690114  
C381     C      0.143720000000     0.781140000000     0.942090000000     0.0687729  
C382     C      0.140630000000     0.778020000000     0.989400000000    -0.0839791  
C383     C      0.265700000000     0.894480000000     0.866160000000     0.185122   
C384     C      0.275870000000     0.858270000000     0.825670000000     0.078625   
C385     C      0.297660000000     0.911290000000     0.879530000000    -0.13548    
C386     C      0.369110000000     0.950190000000     0.887270000000    -0.0837871  
C387     C      0.307340000000     0.874000000000     0.840010000000    -0.100872   
C388     C      0.351700000000     0.917270000000     0.884280000000     0.026331   
C389     C      0.318620000000     0.900910000000     0.867070000000     0.0557896  
C390     C      0.400000000000     0.965110000000     0.904280000000     0.0711774  
C391     C      0.396900000000     0.915700000000     0.915460000000     0.0710346  
C392     C      0.365930000000     0.900030000000     0.898860000000    -0.0842029  
C393     C      0.796570000000     0.626420000000     0.788520000000     0.185472   
C394     C      0.817960000000     0.681910000000     0.783450000000     0.0783861  
C395     C      0.797550000000     0.628600000000     0.836200000000    -0.135076   
C396     C      0.786840000000     0.637060000000     0.935310000000    -0.0838527  
C397     C      0.818010000000     0.684390000000     0.830680000000    -0.1003     
C398     C      0.810700000000     0.660190000000     0.908050000000     0.0264171  
C399     C      0.808660000000     0.657740000000     0.857670000000     0.0556716  
C400     C      0.790350000000     0.638310000000     0.982470000000     0.070738   
C401     C      0.839880000000     0.685570000000     0.976700000000     0.0707354  
C402     C      0.837170000000     0.684990000000     0.929350000000    -0.0832977  
C403     C      0.817160000000     0.634840000000     0.294770000000     0.18424    
C404     C      0.871020000000     0.675120000000     0.284450000000     0.0773334  
C405     C      0.823320000000     0.633310000000     0.341100000000    -0.135821   
C406     C      0.863240000000     0.684820000000     0.431390000000    -0.0842101  
C407     C      0.876740000000     0.675620000000     0.330990000000    -0.101486   
C408     C      0.856640000000     0.656880000000     0.409470000000     0.0260343  
C409     C      0.852810000000     0.654420000000     0.359620000000     0.0557845  
C410     C      0.860840000000     0.685290000000     0.478630000000     0.0711992  
C411     C      0.848350000000     0.631920000000     0.482980000000     0.0705484  
C412     C      0.849810000000     0.630430000000     0.435680000000    -0.0847768  
C413     C      0.604290000000     0.528980000000     0.500070000000     0.183868   
C414     C      0.596300000000     0.567630000000     0.537400000000     0.0786893  
C415     C      0.634780000000     0.542480000000     0.519330000000    -0.134811   
C416     C      0.692800000000     0.566940000000     0.580050000000    -0.0840593  
C417     C      0.626720000000     0.581820000000     0.555650000000    -0.100455   
C418     C      0.679250000000     0.584750000000     0.565090000000     0.0261259  
C419     C      0.646320000000     0.569190000000     0.547060000000     0.0551785  
C420     C      0.724120000000     0.582090000000     0.595510000000     0.0697379  
C421     C      0.728780000000     0.632020000000     0.582680000000     0.070796   
C422     C      0.697660000000     0.617670000000     0.566750000000    -0.0838736  
C423     C      0.058840000000     0.745020000000     0.763210000000     0.185378   
C424     C      0.068300000000     0.792460000000     0.726930000000     0.0798471  
C425     C      0.028200000000     0.729240000000     0.744310000000    -0.134293   
C426     C      0.968380000000     0.697150000000     0.688010000000    -0.0833156  
C427     C      0.038000000000     0.777310000000     0.708240000000    -0.100236   
C428     C      0.984220000000     0.729260000000     0.699360000000     0.026987   
C429     C      0.017390000000     0.745330000000     0.716870000000     0.0554547  
C430     C      0.936810000000     0.682300000000     0.673700000000     0.0713664  
C431     C      0.936500000000     0.730400000000     0.679500000000     0.0716011  
C432     C      0.967740000000     0.745790000000     0.694900000000    -0.0839562  
H1       H      0.664310000000     0.915210000000     0.749790000000     0.0272107  
H2       H      0.816960000000     0.063280000000     0.654390000000     0.0214374  
H3       H      0.781190000000     0.975900000000     0.743470000000     0.0499844  
H4       H      0.790850000000     0.008740000000     0.677570000000     0.0526954  
H5       H      0.690200000000     0.969260000000     0.723560000000     0.051726   
H6       H      0.722740000000     0.021940000000     0.753160000000     0.0704502  
H7       H      0.754540000000     0.921510000000     0.768560000000     0.0262954  
H8       H      0.763130000000     0.105900000000     0.741250000000     0.103529   
H10      H      0.833950000000     0.257730000000     0.622240000000     0.0253388  
H11      H      0.989810000000     0.405190000000     0.526350000000     0.026361   
H12      H      0.936170000000     0.300360000000     0.541990000000     0.0490933  
H13      H      0.964510000000     0.352250000000     0.553240000000     0.0533285  
H14      H      0.859950000000     0.311570000000     0.597280000000     0.0479381  
H15      H      0.873830000000     0.347250000000     0.543790000000     0.062269   
H16      H      0.910780000000     0.247510000000     0.572180000000     0.025533   
H17      H      0.906310000000     0.430700000000     0.537610000000     0.107041   
H18      H      0.872450000000     0.393390000000     0.536890000000     0.08608    
H19      H      0.002700000000     0.591580000000     0.439400000000     0.026275   
H20      H      0.161930000000     0.737460000000     0.351280000000     0.0233573  
H21      H      0.111070000000     0.632870000000     0.379920000000     0.0486156  
H22      H      0.136430000000     0.686670000000     0.387320000000     0.052987   
H23      H      0.029620000000     0.643610000000     0.406180000000     0.0497027  
H24      H      0.046080000000     0.669830000000     0.337540000000     0.0629859  
H25      H      0.084110000000     0.581770000000     0.416050000000     0.0253796  
H26      H      0.044500000000     0.707080000000     0.289410000000     0.0877135  
H27      H      0.078910000000     0.740750000000     0.269430000000     0.106436   
H28      H      0.575880000000     0.734830000000     0.846680000000     0.0260422  
H29      H      0.587140000000     0.593690000000     0.958420000000     0.0229601  
H30      H      0.635530000000     0.678670000000     0.866320000000     0.0498576  
H31      H      0.614460000000     0.646860000000     0.929410000000     0.0542137  
H32      H      0.549390000000     0.683050000000     0.880040000000     0.0489204  
H33      H      0.528170000000     0.630710000000     0.864930000000     0.062844   
H34      H      0.661940000000     0.731700000000     0.835940000000     0.0265489  
H35      H      0.483450000000     0.580830000000     0.868270000000     0.0868727  
H36      H      0.483760000000     0.547960000000     0.891690000000     0.106515   
H37      H      0.331320000000     0.070360000000     0.187540000000     0.0265941  
H38      H      0.178520000000     0.923970000000     0.287470000000     0.0227349  
H39      H      0.214510000000     0.010780000000     0.196960000000     0.0487381  
H40      H      0.205090000000     0.978510000000     0.263840000000     0.0533551  
H41      H      0.305330000000     0.016880000000     0.216100000000     0.0499776  
H42      H      0.272380000000     0.964280000000     0.188130000000     0.063893   
H43      H      0.241300000000     0.064660000000     0.169620000000     0.0260171  
H44      H      0.264120000000     0.913450000000     0.180240000000     0.0880831  
H45      H      0.229940000000     0.879830000000     0.200130000000     0.106864   
H46      H      0.420780000000     0.252120000000     0.094490000000     0.0259483  
H47      H      0.411670000000     0.397570000000     0.994550000000     0.023396   
H48      H      0.361400000000     0.308850000000     0.079070000000     0.049407   
H49      H      0.383770000000     0.343420000000     0.019250000000     0.0540455  
H50      H      0.447860000000     0.305100000000     0.065210000000     0.0488232  
H51      H      0.468820000000     0.356770000000     0.084470000000     0.0625619  
H52      H      0.334480000000     0.254770000000     0.105270000000     0.0261306  
H53      H      0.513760000000     0.440400000000     0.064300000000     0.102709   
H54      H      0.513680000000     0.406670000000     0.085010000000     0.0858747  
H55      H      0.710240000000     0.813480000000     0.668040000000     0.0264901  
H56      H      0.630910000000     0.766180000000     0.428100000000     0.0221257  
H57      H      0.616270000000     0.790190000000     0.575820000000     0.0502169  
H58      H      0.628730000000     0.757680000000     0.509320000000     0.0536166  
H59      H      0.713120000000     0.810900000000     0.585720000000     0.0506834  
H60      H      0.706080000000     0.851620000000     0.528130000000     0.0650866  
H61      H      0.614240000000     0.793780000000     0.658130000000     0.0260161  
H62      H      0.722570000000     0.886750000000     0.467750000000     0.0874473  
H63      H      0.702250000000     0.878360000000     0.416010000000     0.107556   
H64      H      0.621190000000     0.843200000000     0.928130000000     0.0263175  
H65      H      0.706290000000     0.878630000000     0.166350000000     0.0245663  
H66      H      0.708130000000     0.850000000000     0.022760000000     0.0503731  
H67      H      0.708940000000     0.883230000000     0.084920000000     0.0540098  
H68      H      0.617970000000     0.846230000000     0.010230000000     0.0493481  
H69      H      0.610210000000     0.813080000000     0.075710000000     0.0638854  
H70      H      0.710910000000     0.847510000000     0.940880000000     0.0268708  
H71      H      0.580020000000     0.797000000000     0.142840000000     0.0878681  
H72      H      0.595850000000     0.812330000000     0.196890000000     0.106963   
H73      H      0.738670000000     0.662760000000     0.164760000000     0.0249695  
H74      H      0.745440000000     0.823430000000     0.229770000000     0.0232048  
H75      H      0.802270000000     0.775340000000     0.204670000000     0.048975   
H76      H      0.770930000000     0.797440000000     0.195030000000     0.0531095  
H77      H      0.711780000000     0.689610000000     0.193040000000     0.0492099  
H78      H      0.702990000000     0.710240000000     0.258260000000     0.063076   
H79      H      0.827930000000     0.748250000000     0.173660000000     0.0264838  
H80      H      0.665860000000     0.744730000000     0.325210000000     0.105983   
H81      H      0.665760000000     0.710150000000     0.308450000000     0.0880727  
H82      H      0.495720000000     0.904710000000     0.407620000000     0.0257684  
H83      H      0.652620000000     0.914660000000     0.310780000000     0.0224311  
H84      H      0.612220000000     0.964580000000     0.392860000000     0.0497667  
H85      H      0.625200000000     0.942110000000     0.333490000000     0.0536535  
H86      H      0.522610000000     0.878110000000     0.378990000000     0.0486879  
H87      H      0.554460000000     0.858240000000     0.400810000000     0.0628461  
H88      H      0.584210000000     0.990860000000     0.418680000000     0.0270858  
H89      H      0.561080000000     0.814430000000     0.404470000000     0.0870261  
H90      H      0.595380000000     0.814710000000     0.384980000000     0.105846   
H91      H      0.049960000000     0.551350000000     0.843300000000     0.0259479  
H92      H      0.957540000000     0.507260000000     0.611350000000     0.0227646  
H93      H      0.961940000000     0.472060000000     0.749980000000     0.0501168  
H94      H      0.957810000000     0.506590000000     0.693240000000     0.053758   
H95      H      0.051190000000     0.558920000000     0.761710000000     0.0489671  
H96      H      0.057300000000     0.536680000000     0.692150000000     0.0638469  
H97      H      0.961070000000     0.465480000000     0.831680000000     0.02649    
H98      H      0.084930000000     0.553570000000     0.622710000000     0.0875639  
H99      H      0.066430000000     0.553510000000     0.570990000000     0.10593    
H100     H      0.942570000000     0.477340000000     0.338270000000     0.026561   
H101     H      0.989880000000     0.443210000000     0.103610000000     0.0217427  
H102     H      0.025240000000     0.464760000000     0.259860000000     0.0508801  
H103     H      0.984300000000     0.432850000000     0.184780000000     0.0554724  
H104     H      0.944130000000     0.477920000000     0.255860000000     0.0512466  
H105     H      0.994490000000     0.523620000000     0.208540000000     0.0647823  
H106     H      0.023590000000     0.464860000000     0.342730000000     0.026361   
H107     H      0.996310000000     0.553760000000     0.150250000000     0.0844216  
H108     H      0.997830000000     0.551460000000     0.093800000000     0.166634   
H109     H      0.921740000000     0.654940000000     0.100360000000     0.0262889  
H110     H      0.914890000000     0.513390000000     0.970210000000     0.0203763  
H111     H      0.861230000000     0.540080000000     0.074880000000     0.049388   
H112     H      0.886610000000     0.537110000000     0.004770000000     0.0544572  
H113     H      0.949400000000     0.628480000000     0.073260000000     0.0491537  
H114     H      0.965090000000     0.589560000000     0.095420000000     0.0613149  
H115     H      0.834150000000     0.567290000000     0.101620000000     0.0263386  
H116     H      0.017430000000     0.567340000000     0.045460000000     0.111385   
H117     H      0.011390000000     0.588320000000     0.080640000000     0.0825994  
H118     H      0.282790000000     0.133210000000     0.997320000000     0.0263578  
H119     H      0.380130000000     0.186930000000     0.778470000000     0.025311   
H120     H      0.380420000000     0.146830000000     0.925230000000     0.0498525  
H121     H      0.378730000000     0.183540000000     0.860300000000     0.0548911  
H122     H      0.284750000000     0.129580000000     0.914960000000     0.0509767  
H123     H      0.293600000000     0.093550000000     0.853520000000     0.0638382  
H124     H      0.377580000000     0.149560000000     0.007560000000     0.0262737  
H125     H      0.277620000000     0.068450000000     0.782360000000     0.0875013  
H126     H      0.299180000000     0.084660000000     0.731880000000     0.107321   
H127     H      0.381020000000     0.188860000000     0.280870000000     0.0261725  
H128     H      0.283670000000     0.139070000000     0.500250000000     0.0230361  
H129     H      0.283690000000     0.176420000000     0.352400000000     0.0497736  
H130     H      0.285240000000     0.141150000000     0.418440000000     0.0538872  
H131     H      0.379450000000     0.193950000000     0.363070000000     0.050661   
H132     H      0.371050000000     0.230690000000     0.423270000000     0.0637549  
H133     H      0.286100000000     0.172140000000     0.270360000000     0.0262669  
H134     H      0.365610000000     0.241530000000     0.544420000000     0.106755   
H135     H      0.387290000000     0.256780000000     0.493760000000     0.087244   
H136     H      0.402790000000     0.993430000000     0.508670000000     0.0272082  
H137     H      0.415010000000     0.145050000000     0.621580000000     0.0238295  
H138     H      0.461120000000     0.109220000000     0.523220000000     0.0490199  
H139     H      0.440910000000     0.117800000000     0.592280000000     0.0535174  
H140     H      0.376020000000     0.019240000000     0.541380000000     0.0497558  
H141     H      0.355460000000     0.052950000000     0.521960000000     0.0633958  
H142     H      0.487450000000     0.082610000000     0.491940000000     0.0252223  
H143     H      0.314700000000     0.096000000000     0.544230000000     0.106525   
H144     H      0.312800000000     0.061970000000     0.521490000000     0.0875875  
H145     H      0.097000000000     0.496800000000     0.957710000000     0.0256952  
H146     H      0.087650000000     0.352430000000     0.831070000000     0.0227791  
H147     H      0.039750000000     0.381460000000     0.937490000000     0.0493233  
H148     H      0.060600000000     0.374460000000     0.871480000000     0.0541707  
H149     H      0.125960000000     0.471740000000     0.930810000000     0.0476001  
H150     H      0.147470000000     0.439170000000     0.939150000000     0.0600858  
H151     H      0.011280000000     0.407620000000     0.961490000000     0.0262705  
H152     H      0.195410000000     0.430540000000     0.864720000000     0.105091   
H153     H      0.192800000000     0.442560000000     0.914810000000     0.0793025  
H154     H      0.338030000000     0.255140000000     0.694510000000     0.0256479  
H155     H      0.187650000000     0.255720000000     0.794880000000     0.0239772  
H156     H      0.221550000000     0.203800000000     0.705820000000     0.0493561  
H157     H      0.213120000000     0.226680000000     0.771500000000     0.0536196  
H158     H      0.314590000000     0.285030000000     0.724280000000     0.0496692  
H159     H      0.284030000000     0.308260000000     0.700460000000     0.0633292  
H160     H      0.245720000000     0.174410000000     0.677690000000     0.0264871  
H161     H      0.244650000000     0.353520000000     0.713770000000     0.106689   
H162     H      0.278430000000     0.352640000000     0.694910000000     0.0877603  
H163     H      0.436980000000     0.476240000000     0.849890000000     0.0241523  
H164     H      0.486100000000     0.445980000000     0.607990000000     0.0249206  
H165     H      0.516860000000     0.470560000000     0.753360000000     0.05005    
H166     H      0.484520000000     0.439520000000     0.689190000000     0.0537368  
H167     H      0.430910000000     0.474880000000     0.767890000000     0.0480916  
H168     H      0.457070000000     0.509850000000     0.704490000000     0.0626992  
H169     H      0.521970000000     0.471420000000     0.835360000000     0.0266543  
H170     H      0.443100000000     0.527810000000     0.639250000000     0.086618   
H171     H      0.443010000000     0.513660000000     0.584130000000     0.105882   
H172     H      0.518470000000     0.474750000000     0.338420000000     0.0245823  
H173     H      0.483330000000     0.530220000000     0.114070000000     0.0259881  
H174     H      0.519470000000     0.565470000000     0.263710000000     0.0492702  
H175     H      0.486290000000     0.535590000000     0.195410000000     0.0542844  
H176     H      0.524780000000     0.480280000000     0.256980000000     0.0490997  
H177     H      0.561670000000     0.514430000000     0.198250000000     0.0620406  
H178     H      0.513060000000     0.559210000000     0.345990000000     0.0256866  
H179     H      0.558150000000     0.492880000000     0.080990000000     0.104334   
H180     H      0.577090000000     0.500360000000     0.133040000000     0.0840561  
H181     H      0.834670000000     0.218620000000     0.009770000000     0.0263958  
H182     H      0.800150000000     0.181220000000     0.781540000000     0.0242281  
H183     H      0.865090000000     0.153170000000     0.918890000000     0.0513013  
H184     H      0.803590000000     0.184010000000     0.863190000000     0.0546793  
H185     H      0.837650000000     0.224110000000     0.927440000000     0.049926   
H186     H      0.897960000000     0.198370000000     0.856920000000     0.0641659  
H187     H      0.861270000000     0.147640000000     0.001200000000     0.0267428  
H188     H      0.923350000000     0.208920000000     0.785730000000     0.0877276  
H189     H      0.905760000000     0.211900000000     0.735040000000     0.107045   
H190     H      0.814910000000     0.105140000000     0.272090000000     0.0261601  
H191     H      0.773330000000     0.150130000000     0.510820000000     0.0250353  
H192     H      0.802810000000     0.181290000000     0.367470000000     0.0500805  
H193     H      0.770010000000     0.149580000000     0.429010000000     0.0537365  
H194     H      0.809430000000     0.097050000000     0.353650000000     0.0485279  
H195     H      0.838500000000     0.118710000000     0.421050000000     0.0630478  
H196     H      0.807340000000     0.188100000000     0.285780000000     0.0268385  
H197     H      0.852080000000     0.102230000000     0.488210000000     0.0867647  
H198     H      0.836180000000     0.102790000000     0.541920000000     0.105088   
H199     H      0.113320000000     0.304170000000     0.674770000000     0.0260148  
H200     H      0.158840000000     0.391960000000     0.439100000000     0.0239414  
H201     H      0.193400000000     0.390950000000     0.580770000000     0.0493828  
H202     H      0.159510000000     0.394210000000     0.521030000000     0.0537098  
H203     H      0.104850000000     0.303480000000     0.593560000000     0.0490324  
H204     H      0.128650000000     0.295330000000     0.526980000000     0.0638627  
H205     H      0.200900000000     0.391310000000     0.662320000000     0.0240948  
H206     H      0.111380000000     0.282130000000     0.406560000000     0.100538   
H207     H      0.111800000000     0.265740000000     0.459720000000     0.0862492  
H208     H      0.176780000000     0.394990000000     0.163050000000     0.0259596  
H209     H      0.158460000000     0.295150000000     0.945490000000     0.0227352  
H210     H      0.191970000000     0.312630000000     0.090770000000     0.0493372  
H211     H      0.158000000000     0.299320000000     0.027190000000     0.0546374  
H212     H      0.179610000000     0.393830000000     0.080990000000     0.0486228  
H213     H      0.210250000000     0.400580000000     0.016130000000     0.0626595  
H214     H      0.187470000000     0.313580000000     0.172540000000     0.0247475  
H215     H      0.228630000000     0.420990000000     0.940100000000     0.0853123  
H216     H      0.194150000000     0.410340000000     0.911700000000     0.161137   
H217     H      0.930550000000     0.180850000000     0.167630000000     0.0260192  
H218     H      0.076140000000     0.343630000000     0.239880000000     0.0240614  
H219     H      0.968820000000     0.289620000000     0.220260000000     0.0500613  
H220     H      0.024300000000     0.315850000000     0.205470000000     0.0540782  
H221     H      0.983920000000     0.211060000000     0.197100000000     0.0499668  
H222     H      0.007780000000     0.230120000000     0.269910000000     0.0636491  
H223     H      0.915960000000     0.259140000000     0.189020000000     0.0267409  
H224     H      0.044950000000     0.232210000000     0.322390000000     0.0861434  
H225     H      0.078750000000     0.267730000000     0.338770000000     0.100326   
H226     H      0.396770000000     0.413210000000     0.441980000000     0.0255916  
H227     H      0.249050000000     0.429820000000     0.370740000000     0.0224242  
H228     H      0.354130000000     0.482560000000     0.401130000000     0.0486748  
H229     H      0.299920000000     0.452980000000     0.407740000000     0.0527855  
H230     H      0.344040000000     0.389920000000     0.409910000000     0.0496162  
H231     H      0.318990000000     0.385930000000     0.341060000000     0.0640264  
H232     H      0.405720000000     0.504600000000     0.435900000000     0.0251207  
H233     H      0.282310000000     0.351080000000     0.287990000000     0.0884315  
H234     H      0.248030000000     0.352350000000     0.271790000000     0.10531    
H235     H      0.555390000000     0.030390000000     0.584860000000     0.0265449  
H236     H      0.505360000000     0.943770000000     0.823100000000     0.0243763  
H237     H      0.474180000000     0.944680000000     0.679060000000     0.0498582  
H238     H      0.504690000000     0.940520000000     0.741060000000     0.0536049  
H239     H      0.563690000000     0.031140000000     0.666090000000     0.0493637  
H240     H      0.542980000000     0.040740000000     0.732680000000     0.0636774  
H241     H      0.467070000000     0.944120000000     0.597370000000     0.0264169  
H242     H      0.561980000000     0.070740000000     0.799310000000     0.0864851  
H243     H      0.560680000000     0.054070000000     0.853010000000     0.100697   
H244     H      0.482330000000     0.032910000000     0.083930000000     0.0265223  
H245     H      0.441710000000     0.948320000000     0.323290000000     0.0244709  
H246     H      0.475280000000     0.947510000000     0.181080000000     0.0498883  
H247     H      0.439910000000     0.944970000000     0.241410000000     0.0535895  
H248     H      0.475770000000     0.035320000000     0.165210000000     0.048969   
H249     H      0.505850000000     0.044460000000     0.232980000000     0.0637458  
H250     H      0.481090000000     0.945430000000     0.099470000000     0.0262941  
H251     H      0.501440000000     0.058500000000     0.353200000000     0.105696   
H252     H      0.517810000000     0.074750000000     0.299630000000     0.087636   
H253     H      0.729610000000     0.150140000000     0.115190000000     0.0261552  
H254     H      0.586430000000     0.991920000000     0.025550000000     0.0249883  
H255     H      0.692740000000     0.043250000000     0.055470000000     0.0503703  
H256     H      0.636400000000     0.017560000000     0.065150000000     0.054378   
H257     H      0.677800000000     0.121730000000     0.080160000000     0.0500825  
H258     H      0.658340000000     0.105770000000     0.003490000000     0.0638778  
H259     H      0.744090000000     0.071950000000     0.091950000000     0.0267578  
H260     H      0.591080000000     0.071510000000     0.926990000000     0.100805   
H261     H      0.624490000000     0.106100000000     0.947000000000     0.0864469  
H262     H      0.226490000000     0.839770000000     0.420570000000     0.026124   
H263     H      0.179070000000     0.876580000000     0.659880000000     0.0244946  
H264     H      0.147720000000     0.847290000000     0.517290000000     0.0500444  
H265     H      0.180540000000     0.880880000000     0.578370000000     0.0535266  
H266     H      0.234040000000     0.843660000000     0.502460000000     0.0488983  
H267     H      0.210580000000     0.812130000000     0.569230000000     0.0635602  
H268     H      0.141250000000     0.844090000000     0.435640000000     0.0266336  
H269     H      0.225100000000     0.812450000000     0.690370000000     0.105537   
H270     H      0.225840000000     0.797160000000     0.636390000000     0.0872316  
H271     H      0.141320000000     0.848190000000     0.929190000000     0.024515   
H272     H      0.178830000000     0.790340000000     0.152230000000     0.0234312  
H273     H      0.140570000000     0.758130000000     0.005620000000     0.0484951  
H274     H      0.173320000000     0.784850000000     0.070860000000     0.0531273  
H275     H      0.136810000000     0.844280000000     0.010750000000     0.0486485  
H276     H      0.105990000000     0.817210000000     0.073890000000     0.0626058  
H277     H      0.146130000000     0.763360000000     0.923430000000     0.0247084  
H278     H      0.100030000000     0.839340000000     0.140080000000     0.0861521  
H279     H      0.123970000000     0.846730000000     0.188130000000     0.106684   
H280     H      0.412700000000     0.990650000000     0.905670000000     0.0267941  
H281     H      0.268530000000     0.838050000000     0.803570000000     0.0210746  
H282     H      0.353120000000     0.874510000000     0.898050000000     0.0493921  
H283     H      0.322860000000     0.865300000000     0.829270000000     0.0534383  
H284     H      0.359100000000     0.964450000000     0.876030000000     0.0502448  
H285     H      0.305550000000     0.931200000000     0.902380000000     0.0639524  
H286     H      0.407000000000     0.901410000000     0.926250000000     0.0259928  
H287     H      0.253850000000     0.922190000000     0.907210000000     0.0876084  
H288     H      0.220790000000     0.888030000000     0.885920000000     0.106677   
H289     H      0.771510000000     0.619590000000     0.002140000000     0.0261806  
H290     H      0.826980000000     0.703620000000     0.764210000000     0.0243726  
H291     H      0.856250000000     0.703300000000     0.909550000000     0.0502593  
H292     H      0.825940000000     0.707270000000     0.845940000000     0.0540995  
H293     H      0.765630000000     0.617870000000     0.920330000000     0.0491175  
H294     H      0.789190000000     0.607390000000     0.856410000000     0.0639277  
H295     H      0.861090000000     0.704760000000     0.991750000000     0.0264743  
H296     H      0.774140000000     0.593120000000     0.735530000000     0.105615   
H297     H      0.772180000000     0.576910000000     0.789830000000     0.0874097  
H298     H      0.864930000000     0.707050000000     0.494290000000     0.0262862  
H299     H      0.890790000000     0.691450000000     0.263480000000     0.0244635  
H300     H      0.844610000000     0.608460000000     0.419600000000     0.0504597  
H301     H      0.899780000000     0.692550000000     0.344530000000     0.0544776  
H302     H      0.868440000000     0.705680000000     0.411980000000     0.0510943  
H303     H      0.804120000000     0.617850000000     0.363620000000     0.0650719  
H304     H      0.842120000000     0.610660000000     0.502070000000     0.0259464  
H305     H      0.768430000000     0.603400000000     0.303610000000     0.0869131  
H306     H      0.777650000000     0.623980000000     0.252000000000     0.106894   
H307     H      0.733720000000     0.567410000000     0.606540000000     0.024469   
H308     H      0.581780000000     0.577860000000     0.546560000000     0.0245258  
H309     H      0.688400000000     0.632430000000     0.554880000000     0.0498549  
H310     H      0.634530000000     0.602310000000     0.577230000000     0.0543743  
H311     H      0.679290000000     0.541430000000     0.580020000000     0.0489899  
H312     H      0.650180000000     0.533250000000     0.510300000000     0.0629017  
H313     H      0.742200000000     0.657560000000     0.582910000000     0.0267863  
H314     H      0.611500000000     0.497440000000     0.460400000000     0.0865618  
H315     H      0.577290000000     0.499040000000     0.445600000000     0.105705   
H316     H      0.925380000000     0.657400000000     0.665580000000     0.0264523  
H317     H      0.083560000000     0.817110000000     0.718260000000     0.0224719  
H318     H      0.978520000000     0.770410000000     0.704190000000     0.0493598  
H319     H      0.031070000000     0.790710000000     0.686540000000     0.0535078  
H320     H      0.980220000000     0.683450000000     0.689960000000     0.0501273  
H321     H      0.012250000000     0.704860000000     0.753430000000     0.0638986  
H322     H      0.924700000000     0.744160000000     0.676960000000     0.0260491  
H323     H      0.050760000000     0.705440000000     0.801490000000     0.0885759  
H324     H      0.085990000000     0.740160000000     0.815970000000     0.106493   
N1       N      0.785050000000     0.074400000000     0.689490000000    -0.215238   
N2       N      0.707460000000     0.914280000000     0.761120000000    -0.197043   
N3       N      0.750350000000     0.081330000000     0.741310000000    -0.173106   
N4       N      0.947390000000     0.408580000000     0.522240000000    -0.214593   
N5       N      0.870460000000     0.248690000000     0.599160000000    -0.197825   
N6       N      0.897050000000     0.406660000000     0.532760000000    -0.217867   
N7       N      0.119090000000     0.734170000000     0.325270000000    -0.216555   
N8       N      0.041280000000     0.582700000000     0.429900000000    -0.197414   
N9       N      0.069020000000     0.721980000000     0.292280000000    -0.219262   
N10      N      0.541790000000     0.581720000000     0.930330000000    -0.216914   
N11      N      0.620900000000     0.737170000000     0.838950000000    -0.19747    
N12      N      0.495360000000     0.572370000000     0.888280000000    -0.219621   
N13      N      0.209930000000     0.912280000000     0.252180000000    -0.216255   
N14      N      0.288300000000     0.071550000000     0.176460000000    -0.197017   
N15      N      0.244210000000     0.904240000000     0.201420000000    -0.218979   
N16      N      0.456540000000     0.408380000000     0.023310000000    -0.216383   
N17      N      0.375610000000     0.249460000000     0.102040000000    -0.197173   
N18      N      0.502130000000     0.415910000000     0.065800000000    -0.219217   
N19      N      0.668840000000     0.814490000000     0.430220000000    -0.215897   
N20      N      0.662290000000     0.804610000000     0.669060000000    -0.197357   
N21      N      0.706640000000     0.869400000000     0.445470000000    -0.218247   
N22      N      0.656940000000     0.842830000000     0.169230000000    -0.215948   
N23      N      0.666010000000     0.844600000000     0.928430000000    -0.197288   
N24      N      0.600240000000     0.809960000000     0.162860000000    -0.21866    
N25      N      0.708690000000     0.782110000000     0.262660000000    -0.215565   
N26      N      0.785320000000     0.703370000000     0.167450000000    -0.196702   
N27      N      0.674210000000     0.734110000000     0.302700000000    -0.218982   
N28      N      0.619130000000     0.870430000000     0.340830000000    -0.216666   
N29      N      0.537920000000     0.949740000000     0.415390000000    -0.196588   
N30      N      0.581870000000     0.825810000000     0.385170000000    -0.219422   
N31      N      0.006890000000     0.521440000000     0.603670000000    -0.217364   
N32      N      0.005430000000     0.507890000000     0.843560000000    -0.197951   
N33      N      0.063800000000     0.546260000000     0.604840000000    -0.218465   
N34      N      0.995880000000     0.489680000000     0.108550000000    -0.217781   
N35      N      0.983670000000     0.472210000000     0.346540000000    -0.197803   
N36      N      0.996970000000     0.539370000000     0.124370000000    -0.233977   
N37      N      0.956950000000     0.539190000000     0.010250000000    -0.220402   
N38      N      0.875800000000     0.613200000000     0.102490000000    -0.196197   
N39      N      0.999340000000     0.565930000000     0.065620000000    -0.275868   
N40      N      0.337390000000     0.142520000000     0.767410000000    -0.214506   
N41      N      0.330170000000     0.142100000000     0.008560000000    -0.196114   
N42      N      0.295210000000     0.088360000000     0.765550000000    -0.218162   
N43      N      0.326750000000     0.183350000000     0.510440000000    -0.214943   
N44      N      0.333560000000     0.179690000000     0.269520000000    -0.196352   
N45      N      0.369490000000     0.237260000000     0.510990000000    -0.218133   
N46      N      0.370070000000     0.115140000000     0.589420000000    -0.215117   
N47      N      0.447190000000     0.036020000000     0.498110000000    -0.196394   
N48      N      0.324810000000     0.081660000000     0.542580000000    -0.219055   
N49      N      0.133750000000     0.384040000000     0.858420000000    -0.218417   
N50      N      0.051810000000     0.454240000000     0.960220000000    -0.196288   
N51      N      0.183020000000     0.421950000000     0.895170000000    -0.269433   
N52      N      0.220740000000     0.299020000000     0.761860000000    -0.21506    
N53      N      0.293690000000     0.212530000000     0.683880000000    -0.196458   
N54      N      0.257860000000     0.342130000000     0.714770000000    -0.21885    
N55      N      0.472950000000     0.481950000000     0.608190000000    -0.215649   
N56      N      0.480250000000     0.474560000000     0.848730000000    -0.197354   
N57      N      0.449960000000     0.515160000000     0.617990000000    -0.218636   
N58      N      0.519340000000     0.517050000000     0.107650000000    -0.213947   
N59      N      0.514870000000     0.516330000000     0.348260000000    -0.197512   
N60      N      0.560240000000     0.502230000000     0.113240000000    -0.219304   
N61      N      0.846820000000     0.187610000000     0.770630000000    -0.215156   
N62      N      0.847210000000     0.182360000000     0.011570000000    -0.196629   
N63      N      0.902630000000     0.204540000000     0.768840000000    -0.218275   
N64      N      0.808140000000     0.135340000000     0.514010000000    -0.215431   
N65      N      0.811950000000     0.147430000000     0.272830000000    -0.196587   
N66      N      0.839370000000     0.109900000000     0.507970000000    -0.218123   
N67      N      0.143900000000     0.342580000000     0.435000000000    -0.21735    
N68      N      0.158010000000     0.347480000000     0.674420000000    -0.198987   
N69      N      0.118990000000     0.286070000000     0.440250000000    -0.218151   
N70      N      0.184050000000     0.345030000000     0.933490000000    -0.21882    
N71      N      0.181210000000     0.353980000000     0.173750000000    -0.198588   
N72      N      0.207900000000     0.401430000000     0.928000000000    -0.226311   
N73      N      0.072800000000     0.303070000000     0.273480000000    -0.217509   
N74      N      0.919140000000     0.217570000000     0.176830000000    -0.198247   
N75      N      0.060070000000     0.256180000000     0.315900000000    -0.218434   
N76      N      0.253580000000     0.393530000000     0.336540000000    -0.217905   
N77      N      0.405300000000     0.460630000000     0.440750000000    -0.198473   
N78      N      0.266950000000     0.359750000000     0.294410000000    -0.219118   
N79      N      0.524120000000     0.993870000000     0.825850000000    -0.215724   
N80      N      0.510340000000     0.987530000000     0.585110000000    -0.196547   
N81      N      0.553160000000     0.050390000000     0.819240000000    -0.217729   
N82      N      0.475160000000     0.998050000000     0.326260000000    -0.215389   
N83      N      0.482660000000     0.989230000000     0.085630000000    -0.196498   
N84      N      0.505240000000     0.054520000000     0.319550000000    -0.218319   
N85      N      0.592490000000     0.033860000000     0.992710000000    -0.217198   
N86      N      0.740950000000     0.113420000000     0.105300000000    -0.198135   
N87      N      0.608580000000     0.082090000000     0.951820000000    -0.218266   
N88      N      0.193250000000     0.841410000000     0.662690000000    -0.215879   
N89      N      0.183120000000     0.841220000000     0.422020000000    -0.197206   
N90      N      0.218220000000     0.809770000000     0.656350000000    -0.218419   
N91      N      0.147310000000     0.808870000000     0.160760000000    -0.216398   
N92      N      0.144730000000     0.806450000000     0.920300000000    -0.198206   
N93      N      0.115570000000     0.834270000000     0.157850000000    -0.218589   
N94      N      0.255350000000     0.868720000000     0.837360000000    -0.217639   
N95      N      0.413880000000     0.948000000000     0.917930000000    -0.198135   
N96      N      0.245360000000     0.902420000000     0.886110000000    -0.219073   
N97      N      0.809180000000     0.653620000000     0.762450000000    -0.216851   
N98      N      0.817000000000     0.661990000000     0.002980000000    -0.197516   
N99      N      0.781020000000     0.597120000000     0.769580000000    -0.218517   
N100     N      0.841740000000     0.654810000000     0.265930000000    -0.216068   
N101     N      0.852470000000     0.658750000000     0.504090000000    -0.198022   
N102     N      0.786180000000     0.618890000000     0.281380000000    -0.218241   
N103     N      0.584580000000     0.540890000000     0.511140000000    -0.216869   
N104     N      0.742050000000     0.614390000000     0.596510000000    -0.198208   
N105     N      0.596420000000     0.506320000000     0.467710000000    -0.219055   
N106     N      0.079100000000     0.776510000000     0.753030000000    -0.217717   
N107     N      0.920990000000     0.698810000000     0.669560000000    -0.198298   
N108     N      0.066330000000     0.729250000000     0.794570000000    -0.219469   
Ni1      Ni     0.829890000000     0.631480000000     0.637020000000     1.00241    
Ni2      Ni     0.833070000000     0.681330000000     0.629730000000     1.01204    
Ni3      Ni     0.169550000000     0.799620000000     0.789160000000     0.997052   
Ni4      Ni     0.166720000000     0.846600000000     0.793520000000     1.0127     
Ni5      Ni     0.501780000000     0.966280000000     0.959490000000     1.00162    
Ni6      Ni     0.504320000000     0.015800000000     0.952010000000     1.00496    
Ni7      Ni     0.163250000000     0.324380000000     0.306210000000     1.01214    
Ni8      Ni     0.163430000000     0.372970000000     0.302740000000     1.00498    
Ni9      Ni     0.833400000000     0.142930000000     0.138730000000     1.00364    
Ni10     Ni     0.826230000000     0.187350000000     0.145760000000     1.00545    
Ni11     Ni     0.493490000000     0.475390000000     0.474610000000     1.00632    
Ni12     Ni     0.495230000000     0.524540000000     0.481980000000     1.00017    
Ni13     Ni     0.199620000000     0.367300000000     0.800500000000     1.00909    
Ni14     Ni     0.151870000000     0.317940000000     0.806150000000     1.01332    
Ni15     Ni     0.357600000000     0.185880000000     0.641960000000     0.993418   
Ni16     Ni     0.306350000000     0.140740000000     0.636250000000     0.994723   
Ni17     Ni     0.026830000000     0.522080000000     0.979410000000     1.00027    
Ni18     Ni     0.978810000000     0.473080000000     0.972870000000     1.00991    
Ni19     Ni     0.688390000000     0.850960000000     0.300670000000     0.999721   
Ni20     Ni     0.639330000000     0.802920000000     0.297090000000     0.995174   
Ni21     Ni     0.854400000000     0.682520000000     0.132010000000     0.999814   
Ni22     Ni     0.806020000000     0.633740000000     0.136040000000     1.00017    
Ni23     Ni     0.516290000000     0.017560000000     0.453190000000     0.998203   
Ni24     Ni     0.468570000000     0.968260000000     0.458690000000     0.996887   
Ni25     Ni     0.306840000000     0.159320000000     0.135580000000     0.995736   
Ni26     Ni     0.356660000000     0.161700000000     0.142740000000     1.00095    
Ni27     Ni     0.475550000000     0.496050000000     0.982140000000     0.999489   
Ni28     Ni     0.523480000000     0.494870000000     0.973770000000     0.999484   
Ni29     Ni     0.141180000000     0.824950000000     0.296340000000     1.00023    
Ni30     Ni     0.188490000000     0.822690000000     0.287100000000     1.00016    
Ni31     Ni     0.970760000000     0.496690000000     0.474550000000     1.00749    
Ni32     Ni     0.018470000000     0.494690000000     0.476230000000     0.998972   
Ni33     Ni     0.803370000000     0.161570000000     0.645550000000     1.00283    
Ni34     Ni     0.851520000000     0.160620000000     0.639130000000     0.994881   
Ni35     Ni     0.639410000000     0.824050000000     0.794780000000     1.00491    
Ni36     Ni     0.689300000000     0.826610000000     0.802260000000     1.00192    
O1       O      0.840700000000     0.634390000000     0.573940000000    -0.451986   
O2       O      0.819090000000     0.631790000000     0.699580000000    -0.454136   
O3       O      0.786020000000     0.612500000000     0.620740000000    -0.454019   
O4       O      0.874060000000     0.653790000000     0.652660000000    -0.450125   
O5       O      0.876390000000     0.700200000000     0.648030000000    -0.454748   
O6       O      0.789430000000     0.659170000000     0.611950000000    -0.453753   
O7       O      0.820780000000     0.677700000000     0.692270000000    -0.454274   
O8       O      0.845280000000     0.681720000000     0.567690000000    -0.452315   
O9       O      0.156900000000     0.792230000000     0.851820000000    -0.452521   
O10      O      0.182080000000     0.810210000000     0.726760000000    -0.450808   
O11      O      0.212870000000     0.824060000000     0.808080000000    -0.455549   
O12      O      0.125900000000     0.778200000000     0.771210000000    -0.453237   
O13      O      0.123770000000     0.822460000000     0.773280000000    -0.456077   
O14      O      0.209740000000     0.867630000000     0.813830000000    -0.45761    
O15      O      0.180580000000     0.854630000000     0.731600000000    -0.453961   
O16      O      0.153210000000     0.835620000000     0.855220000000    -0.456971   
O17      O      0.490850000000     0.966420000000     0.022300000000    -0.447942   
O18      O      0.512940000000     0.969540000000     0.896130000000    -0.449458   
O19      O      0.545690000000     0.988830000000     0.975690000000    -0.454212   
O20      O      0.458060000000     0.946920000000     0.942810000000    -0.453047   
O21      O      0.460460000000     0.993220000000     0.935220000000    -0.451163   
O22      O      0.548040000000     0.035090000000     0.969030000000    -0.456641   
O23      O      0.515640000000     0.015950000000     0.889640000000    -0.455783   
O24      O      0.492870000000     0.012540000000     0.014970000000    -0.450356   
O25      O      0.153640000000     0.322960000000     0.369560000000    -0.45765    
O26      O      0.172880000000     0.329050000000     0.242710000000    -0.456436   
O27      O      0.207470000000     0.348010000000     0.319740000000    -0.45655    
O28      O      0.119000000000     0.303820000000     0.292330000000    -0.458626   
O29      O      0.119270000000     0.349210000000     0.287770000000    -0.453478   
O30      O      0.207600000000     0.393440000000     0.318190000000    -0.453125   
O31      O      0.173570000000     0.374730000000     0.239490000000    -0.452794   
O32      O      0.153050000000     0.367910000000     0.366050000000    -0.455122   
O33      O      0.843470000000     0.153910000000     0.075900000000    -0.44957    
O34      O      0.822910000000     0.134860000000     0.202140000000    -0.449096   
O35      O      0.789410000000     0.118710000000     0.122960000000    -0.451632   
O36      O      0.876900000000     0.170130000000     0.154610000000    -0.452739   
O37      O      0.870340000000     0.211760000000     0.160410000000    -0.452662   
O38      O      0.782640000000     0.160110000000     0.130730000000    -0.453487   
O39      O      0.816970000000     0.176800000000     0.208910000000    -0.449271   
O40      O      0.835870000000     0.194880000000     0.082040000000    -0.448952   
O41      O      0.482450000000     0.468140000000     0.537570000000    -0.454309   
O42      O      0.504640000000     0.485700000000     0.412100000000    -0.455828   
O43      O      0.537580000000     0.496830000000     0.490560000000    -0.454264   
O44      O      0.449520000000     0.457310000000     0.458970000000    -0.45118    
O45      O      0.451450000000     0.503440000000     0.465500000000    -0.456055   
O46      O      0.539000000000     0.542630000000     0.497630000000    -0.454482   
O47      O      0.506210000000     0.531670000000     0.418510000000    -0.447851   
O48      O      0.483980000000     0.513930000000     0.544890000000    -0.450696   
O49      O      0.189030000000     0.368540000000     0.738080000000    -0.457556   
O50      O      0.206140000000     0.363580000000     0.863420000000    -0.45154    
O51      O      0.220410000000     0.344340000000     0.782900000000    -0.453314   
O52      O      0.176150000000     0.386700000000     0.819920000000    -0.46112    
O53      O      0.131390000000     0.340790000000     0.824600000000    -0.454404   
O54      O      0.175820000000     0.298320000000     0.788190000000    -0.452405   
O55      O      0.161920000000     0.317040000000     0.868530000000    -0.457692   
O56      O      0.144350000000     0.322490000000     0.743640000000    -0.456272   
O57      O      0.359080000000     0.173420000000     0.703460000000    -0.448964   
O58      O      0.352830000000     0.195120000000     0.579840000000    -0.450306   
O59      O      0.337320000000     0.208670000000     0.662930000000    -0.44837    
O60      O      0.374520000000     0.160320000000     0.620510000000    -0.449432   
O61      O      0.326630000000     0.118090000000     0.614820000000    -0.452494   
O62      O      0.289390000000     0.166300000000     0.657510000000    -0.448117   
O63      O      0.304820000000     0.153180000000     0.574840000000    -0.453246   
O64      O      0.311150000000     0.131380000000     0.698220000000    -0.450357   
O65      O      0.022230000000     0.517350000000     0.044650000000    -0.452294   
O66      O      0.027470000000     0.524470000000     0.914450000000    -0.451222   
O67      O      0.001590000000     0.541400000000     0.981900000000    -0.46739    
O68      O      0.049130000000     0.498960000000     0.976260000000    -0.44872    
O69      O      0.004320000000     0.453540000000     0.966310000000    -0.450032   
O70      O      0.956490000000     0.495670000000     0.981250000000    -0.453326   
O71      O      0.981060000000     0.480180000000     0.908570000000    -0.451873   
O72      O      0.979610000000     0.469740000000     0.037410000000    -0.455565   
O73      O      0.682660000000     0.857500000000     0.238170000000    -0.4541     
O74      O      0.690840000000     0.841420000000     0.363220000000    -0.455487   
O75      O      0.708660000000     0.827600000000     0.282540000000    -0.448551   
O76      O      0.664840000000     0.871140000000     0.318500000000    -0.45223    
O77      O      0.618960000000     0.826190000000     0.314120000000    -0.455108   
O78      O      0.662860000000     0.782490000000     0.281090000000    -0.450314   
O79      O      0.644450000000     0.797270000000     0.360450000000    -0.457237   
O80      O      0.637350000000     0.812160000000     0.233980000000    -0.449754   
O81      O      0.859260000000     0.678500000000     0.195940000000    -0.452407   
O82      O      0.846100000000     0.683350000000     0.068310000000    -0.449303   
O83      O      0.830620000000     0.703010000000     0.145970000000    -0.449095   
O84      O      0.875180000000     0.658910000000     0.118660000000    -0.448537   
O85      O      0.829880000000     0.613300000000     0.121550000000    -0.446977   
O86      O      0.785330000000     0.657440000000     0.150230000000    -0.449943   
O87      O      0.800560000000     0.638010000000     0.072620000000    -0.453019   
O88      O      0.814560000000     0.632610000000     0.199280000000    -0.45624    
O89      O      0.505520000000     0.019100000000     0.390810000000    -0.451731   
O90      O      0.523980000000     0.012740000000     0.515810000000    -0.449812   
O91      O      0.537190000000     0.994860000000     0.435200000000    -0.447166   
O92      O      0.492310000000     0.037080000000     0.471770000000    -0.450323   
O93      O      0.447810000000     0.990930000000     0.477600000000    -0.447796   
O94      O      0.492410000000     0.948800000000     0.439390000000    -0.448458   
O95      O      0.479520000000     0.966490000000     0.521020000000    -0.447712   
O96      O      0.460780000000     0.973250000000     0.396050000000    -0.449872   
O97      O      0.306930000000     0.148830000000     0.072630000000    -0.447334   
O98      O      0.309880000000     0.169780000000     0.198970000000    -0.448418   
O99      O      0.329880000000     0.203340000000     0.120070000000    -0.447335   
O100     O      0.287160000000     0.115590000000     0.151740000000    -0.448785   
O101     O      0.333760000000     0.118010000000     0.159280000000    -0.450231   
O102     O      0.376290000000     0.205090000000     0.125630000000    -0.451585   
O103     O      0.356820000000     0.172810000000     0.205530000000    -0.447534   
O104     O      0.353350000000     0.150750000000     0.079440000000    -0.44807    
O105     O      0.466450000000     0.483440000000     0.919750000000    -0.453691   
O106     O      0.487940000000     0.508560000000     0.044200000000    -0.449961   
O107     O      0.498440000000     0.539040000000     0.962300000000    -0.453268   
O108     O      0.455610000000     0.452820000000     0.000780000000    -0.451112   
O109     O      0.500660000000     0.451960000000     0.994340000000    -0.454013   
O110     O      0.543230000000     0.537850000000     0.954140000000    -0.451421   
O111     O      0.532910000000     0.508300000000     0.035720000000    -0.459428   
O112     O      0.510980000000     0.481710000000     0.912070000000    -0.449299   
O113     O      0.152490000000     0.834810000000     0.358980000000    -0.451148   
O114     O      0.132900000000     0.814980000000     0.233190000000    -0.458865   
O115     O      0.120090000000     0.780880000000     0.310840000000    -0.451348   
O116     O      0.165380000000     0.868850000000     0.280580000000    -0.453142   
O117     O      0.209450000000     0.866490000000     0.271780000000    -0.453709   
O118     O      0.164460000000     0.778950000000     0.302750000000    -0.4527     
O119     O      0.177050000000     0.812940000000     0.224210000000    -0.454854   
O120     O      0.196820000000     0.832800000000     0.350520000000    -0.448436   
O121     O      0.966200000000     0.483730000000     0.412400000000    -0.452949   
O122     O      0.978540000000     0.509700000000     0.536840000000    -0.456518   
O123     O      0.995460000000     0.539710000000     0.455560000000    -0.451393   
O124     O      0.949160000000     0.453530000000     0.493580000000    -0.456015   
O125     O      0.993880000000     0.452380000000     0.498700000000    -0.449742   
O126     O      0.039830000000     0.537220000000     0.453910000000    -0.450734   
O127     O      0.024140000000     0.509730000000     0.537490000000    -0.454184   
O128     O      0.009750000000     0.479830000000     0.414690000000    -0.450305   
O129     O      0.794860000000     0.147640000000     0.583390000000    -0.449449   
O130     O      0.815110000000     0.175590000000     0.706980000000    -0.454449   
O131     O      0.826100000000     0.204430000000     0.625330000000    -0.451345   
O132     O      0.783850000000     0.118740000000     0.666110000000    -0.451998   
O133     O      0.828900000000     0.117910000000     0.660270000000    -0.452552   
O134     O      0.871050000000     0.203410000000     0.618170000000    -0.45015    
O135     O      0.860030000000     0.174690000000     0.701290000000    -0.450784   
O136     O      0.839740000000     0.146540000000     0.577670000000    -0.451355   
O137     O      0.642960000000     0.835990000000     0.857570000000    -0.449938   
O138     O      0.639060000000     0.811980000000     0.732550000000    -0.449633   
O139     O      0.619970000000     0.780970000000     0.813280000000    -0.45285    
O140     O      0.662090000000     0.867480000000     0.777080000000    -0.450897   
O141     O      0.708810000000     0.870250000000     0.785510000000    -0.448912   
O142     O      0.666410000000     0.782760000000     0.818550000000    -0.448278   
O143     O      0.686290000000     0.815660000000     0.739270000000    -0.451561   
O144     O      0.689120000000     0.837410000000     0.864800000000    -0.451089   


