data_structure

_audit_creation_method RASPA-1.0
_audit_creation_date 2023-6-5
_audit_author_name 'Poobodin Mano'

_cell_length_a    48.9968
_cell_length_b    49.0254
_cell_length_c    29.3364
_cell_angle_alpha 89.9773
_cell_angle_beta  90.0228
_cell_angle_gamma 119.981
_cell_volume      61039.3

_symmetry_cell_setting          triclinic
_symmetry_space_group_name_Hall 'P 1'
_symmetry_space_group_name_H-M  'P 1'
_symmetry_Int_Tables_number     1

_symmetry_equiv_pos_as_xyz 'x,y,z'

loop_
_atom_site_label
_atom_site_type_symbol
_atom_site_fract_x
_atom_site_fract_y
_atom_site_fract_z
_atom_site_charge
C1       C      0.843240000000     0.664130000000     0.553510000000     0.434717   
C2       C      0.812920000000     0.658700000000     0.721420000000     0.434706   
C3       C      0.770270000000     0.633520000000     0.613230000000     0.435181   
C4       C      0.885990000000     0.689180000000     0.661580000000     0.434787   
C5       C      0.146710000000     0.815910000000     0.888610000000     0.434616   
C6       C      0.175590000000     0.842020000000     0.720460000000     0.434812   
C7       C      0.219200000000     0.859670000000     0.827730000000     0.43491    
C8       C      0.103110000000     0.798220000000     0.781290000000     0.435023   
C9       C      0.509540000000     0.998880000000     0.886460000000     0.435261   
C10      C      0.479300000000     0.993470000000     0.054400000000     0.435226   
C11      C      0.436560000000     0.968480000000     0.946450000000     0.434631   
C12      C      0.552330000000     0.024100000000     0.994630000000     0.434079   
C13      C      0.146380000000     0.327270000000     0.387280000000     0.434265   
C14      C      0.176750000000     0.332140000000     0.219380000000     0.434267   
C15      C      0.219410000000     0.357090000000     0.327350000000     0.434784   
C16      C      0.103610000000     0.302230000000     0.279280000000     0.434607   
C17      C      0.843220000000     0.175780000000     0.052800000000     0.434876   
C18      C      0.813120000000     0.150950000000     0.220780000000     0.434735   
C19      C      0.770330000000     0.133330000000     0.112710000000     0.435002   
C20      C      0.886140000000     0.193600000000     0.160680000000     0.434732   
C21      C      0.479650000000     0.482690000000     0.554040000000     0.434882   
C22      C      0.509870000000     0.507470000000     0.386090000000     0.434728   
C23      C      0.552590000000     0.524880000000     0.494200000000     0.435111   
C24      C      0.436810000000     0.465060000000     0.446100000000     0.434992   
C25      C      0.149820000000     0.332470000000     0.719400000000     0.434347   
C26      C      0.175480000000     0.327780000000     0.887310000000     0.434516   
C27      C      0.193510000000     0.303090000000     0.779330000000     0.434555   
C28      C      0.131860000000     0.357210000000     0.827410000000     0.434456   
C29      C      0.330470000000     0.150470000000     0.720930000000     0.434484   
C30      C      0.327930000000     0.176640000000     0.552730000000     0.434501   
C31      C      0.302170000000     0.194600000000     0.659870000000     0.434569   
C32      C      0.356350000000     0.132650000000     0.613750000000     0.434695   
C33      C      0.996720000000     0.482070000000     0.054890000000     0.435341   
C34      C      0.991250000000     0.506840000000     0.886920000000     0.435153   
C35      C      0.965980000000     0.524290000000     0.994980000000     0.434623   
C36      C      0.021930000000     0.464440000000     0.946980000000     0.434239   
C37      C      0.664390000000     0.816770000000     0.387510000000     0.434686   
C38      C      0.658820000000     0.841560000000     0.219570000000     0.434904   
C39      C      0.633590000000     0.859000000000     0.327730000000     0.434579   
C40      C      0.689600000000     0.799240000000     0.279490000000     0.434351   
C41      C      0.840240000000     0.659040000000     0.221470000000     0.434628   
C42      C      0.815490000000     0.664630000000     0.053510000000     0.43479    
C43      C      0.798060000000     0.690030000000     0.161510000000     0.434389   
C44      C      0.857480000000     0.633640000000     0.113390000000     0.434629   
C45      C      0.506870000000     0.992990000000     0.554170000000     0.435168   
C46      C      0.482020000000     0.998520000000     0.386240000000     0.435272   
C47      C      0.464330000000     0.023470000000     0.494250000000     0.434214   
C48      C      0.524430000000     0.967820000000     0.445960000000     0.434757   
C49      C      0.324250000000     0.146380000000     0.052970000000     0.434555   
C50      C      0.331950000000     0.177990000000     0.220660000000     0.434482   
C51      C      0.356310000000     0.219800000000     0.111990000000     0.434902   
C52      C      0.299800000000     0.104350000000     0.161580000000     0.434436   
C53      C      0.507300000000     0.510550000000     0.054020000000     0.43488    
C54      C      0.482610000000     0.480370000000     0.886050000000     0.434851   
C55      C      0.465320000000     0.437650000000     0.994020000000     0.434758   
C56      C      0.524770000000     0.553420000000     0.946070000000     0.434445   
C57      C      0.172710000000     0.844840000000     0.388450000000     0.434569   
C58      C      0.148660000000     0.813310000000     0.220740000000     0.43446    
C59      C      0.131010000000     0.771390000000     0.329430000000     0.434644   
C60      C      0.190460000000     0.886850000000     0.279870000000     0.434647   
C61      C      0.990770000000     0.480310000000     0.386760000000     0.435411   
C62      C      0.996240000000     0.510470000000     0.554720000000     0.435172   
C63      C      0.021700000000     0.553320000000     0.446720000000     0.434434   
C64      C      0.965410000000     0.437540000000     0.494650000000     0.43453    
C65      C      0.814400000000     0.147120000000     0.553020000000     0.434891   
C66      C      0.839120000000     0.177500000000     0.720930000000     0.434893   
C67      C      0.856530000000     0.220110000000     0.612900000000     0.434835   
C68      C      0.797020000000     0.104420000000     0.661230000000     0.43501    
C69      C      0.663430000000     0.843820000000     0.887360000000     0.434748   
C70      C      0.658010000000     0.813560000000     0.719440000000     0.434825   
C71      C      0.632870000000     0.770800000000     0.827470000000     0.434437   
C72      C      0.688590000000     0.886510000000     0.779220000000     0.434789   
C73      C      0.783480000000     0.030080000000     0.710350000000    -0.0861837  
C74      C      0.750420000000     0.011960000000     0.711040000000     0.0342474  
C75      C      0.733440000000     0.025880000000     0.693830000000    -0.0855411  
C76      C      0.749320000000     0.056890000000     0.677700000000     0.0724565  
C77      C      0.798520000000     0.060450000000     0.692260000000     0.0726929  
C78      C      0.734000000000     0.978970000000     0.729430000000     0.0352697  
C79      C      0.749120000000     0.961020000000     0.730160000000    -0.0864591  
C80      C      0.733940000000     0.930640000000     0.748260000000     0.0728633  
C81      C      0.688120000000     0.933890000000     0.762730000000     0.072578   
C82      C      0.703100000000     0.964890000000     0.746590000000    -0.0857577  
C83      C      0.917560000000     0.293800000000     0.562010000000    -0.0862979  
C84      C      0.903300000000     0.312490000000     0.563200000000     0.0348278  
C85      C      0.873210000000     0.299570000000     0.582720000000    -0.0865153  
C86      C      0.857960000000     0.268720000000     0.599310000000     0.0723257  
C87      C      0.901930000000     0.263310000000     0.579840000000     0.0725552  
C88      C      0.919660000000     0.345140000000     0.544220000000     0.034853   
C89      C      0.952620000000     0.363790000000     0.545510000000    -0.0864323  
C90      C      0.967520000000     0.394290000000     0.527700000000     0.0726588  
C91      C      0.918190000000     0.388950000000     0.508060000000     0.0723567  
C92      C      0.902540000000     0.358100000000     0.524620000000    -0.0864869  
C93      C      0.067280000000     0.692870000000     0.361710000000    -0.0856787  
C94      C      0.084150000000     0.678950000000     0.379260000000     0.034789   
C95      C      0.117210000000     0.697050000000     0.378990000000    -0.0863338  
C96      C      0.132370000000     0.727440000000     0.360940000000     0.0726368  
C97      C      0.083240000000     0.723880000000     0.345610000000     0.072461   
C98      C      0.067600000000     0.645930000000     0.397530000000     0.0346677  
C99      C      0.036640000000     0.631900000000     0.414430000000    -0.0855557  
C100     C      0.021510000000     0.600850000000     0.430370000000     0.0719436  
C101     C      0.067290000000     0.597460000000     0.416230000000     0.0726882  
C102     C      0.082640000000     0.627900000000     0.398360000000    -0.0862919  
C103     C      0.585680000000     0.627200000000     0.895180000000    -0.0863591  
C104     C      0.571320000000     0.645800000000     0.896350000000     0.03483    
C105     C      0.541240000000     0.632810000000     0.915930000000    -0.0864853  
C106     C      0.526080000000     0.601980000000     0.932550000000     0.0722728  
C107     C      0.570130000000     0.596710000000     0.913040000000     0.0724719  
C108     C      0.587550000000     0.678440000000     0.877260000000     0.0347884  
C109     C      0.620490000000     0.697210000000     0.878420000000    -0.0863112  
C110     C      0.635260000000     0.727690000000     0.860550000000     0.0725173  
C111     C      0.585800000000     0.722090000000     0.841040000000     0.072231   
C112     C      0.570300000000     0.691260000000     0.857670000000    -0.0864193  
C113     C      0.286810000000     0.030520000000     0.212440000000    -0.0861806  
C114     C      0.253830000000     0.011960000000     0.211310000000     0.034294   
C115     C      0.236780000000     0.025060000000     0.191920000000    -0.0862737  
C116     C      0.252490000000     0.055920000000     0.175410000000     0.072176   
C117     C      0.301780000000     0.061020000000     0.194640000000     0.0724703  
C118     C      0.237390000000     0.979250000000     0.230190000000     0.0352775  
C119     C      0.251620000000     0.960520000000     0.229090000000    -0.0864062  
C120     C      0.235930000000     0.930020000000     0.246870000000     0.072594   
C121     C      0.191920000000     0.935440000000     0.266020000000     0.0724203  
C122     C      0.207240000000     0.966310000000     0.249530000000    -0.0865748  
C123     C      0.451670000000     0.363110000000     0.042590000000    -0.0863949  
C124     C      0.418610000000     0.345120000000     0.043450000000     0.034809   
C125     C      0.401680000000     0.359130000000     0.026430000000    -0.0857702  
C126     C      0.417600000000     0.390150000000     0.010390000000     0.072686   
C127     C      0.466760000000     0.393520000000     0.024600000000     0.0727807  
C128     C      0.402110000000     0.312160000000     0.061910000000     0.0348175  
C129     C      0.416990000000     0.293980000000     0.062270000000    -0.086344   
C130     C      0.401690000000     0.263620000000     0.080430000000     0.0727424  
C131     C      0.356260000000     0.267400000000     0.095750000000     0.0726894  
C132     C      0.371360000000     0.298370000000     0.079550000000    -0.0858527  
C133     C      0.689270000000     0.828410000000     0.507020000000    -0.0870434  
C134     C      0.662500000000     0.804270000000     0.528300000000     0.0349075  
C135     C      0.637460000000     0.782860000000     0.501090000000    -0.087516   
C136     C      0.639080000000     0.786550000000     0.453780000000     0.07232    
C137     C      0.689910000000     0.831690000000     0.459710000000     0.0725998  
C138     C      0.659960000000     0.803000000000     0.578670000000     0.0350112  
C139     C      0.685040000000     0.806690000000     0.605880000000    -0.0876711  
C140     C      0.683400000000     0.808750000000     0.653190000000     0.0724064  
C141     C      0.632490000000     0.802930000000     0.647230000000     0.072577   
C142     C      0.633150000000     0.800310000000     0.599920000000    -0.0870932  
C143     C      0.689110000000     0.857980000000     0.006520000000    -0.0868198  
C144     C      0.662190000000     0.854700000000     0.028220000000     0.0348382  
C145     C      0.636690000000     0.850290000000     0.001340000000    -0.08716    
C146     C      0.638020000000     0.848040000000     0.954020000000     0.072158   
C147     C      0.689530000000     0.855300000000     0.959180000000     0.0723464  
C148     C      0.660010000000     0.853630000000     0.078690000000     0.0349406  
C149     C      0.633130000000     0.829980000000     0.100420000000    -0.0869457  
C150     C      0.632720000000     0.826900000000     0.147760000000     0.0724535  
C151     C      0.684170000000     0.871190000000     0.152880000000     0.0722978  
C152     C      0.685480000000     0.874750000000     0.105550000000    -0.0873116  
C153     C      0.737100000000     0.702950000000     0.212250000000    -0.0862474  
C154     C      0.751430000000     0.735890000000     0.211000000000     0.0347721  
C155     C      0.781530000000     0.752950000000     0.191480000000    -0.086343   
C156     C      0.796730000000     0.737280000000     0.174960000000     0.0721666  
C157     C      0.752690000000     0.688000000000     0.194490000000     0.07242    
C158     C      0.735140000000     0.752300000000     0.229940000000     0.0347971  
C159     C      0.702190000000     0.738100000000     0.228750000000    -0.086256   
C160     C      0.687350000000     0.753780000000     0.246520000000     0.0723926  
C161     C      0.736760000000     0.797690000000     0.265960000000     0.0721407  
C162     C      0.752330000000     0.782380000000     0.249430000000    -0.0863962  
C163     C      0.538300000000     0.907230000000     0.396820000000    -0.0863821  
C164     C      0.571370000000     0.922290000000     0.396030000000     0.0348385  
C165     C      0.588240000000     0.953180000000     0.413160000000    -0.0856728  
C166     C      0.572250000000     0.968210000000     0.429330000000     0.072548   
C167     C      0.523160000000     0.922460000000     0.414960000000     0.0727957  
C168     C      0.587900000000     0.905800000000     0.377620000000     0.0347039  
C169     C      0.572890000000     0.872750000000     0.376880000000    -0.0862516  
C170     C      0.588160000000     0.857640000000     0.358750000000     0.0727216  
C171     C      0.633870000000     0.906750000000     0.344280000000     0.0724252  
C172     C      0.618800000000     0.922690000000     0.360440000000    -0.085561   
C173     C      0.017960000000     0.540410000000     0.773110000000    -0.0877073  
C174     C      0.992530000000     0.519360000000     0.746140000000     0.0352338  
C175     C      0.965660000000     0.495570000000     0.767720000000    -0.0870553  
C176     C      0.965220000000     0.492320000000     0.815040000000     0.0725886  
C177     C      0.016610000000     0.536680000000     0.820410000000     0.0720425  
C178     C      0.994770000000     0.520660000000     0.695680000000     0.0352616  
C179     C      0.969320000000     0.516410000000     0.668820000000    -0.0873945  
C180     C      0.970740000000     0.514430000000     0.621470000000     0.0723595  
C181     C      0.022230000000     0.521630000000     0.626600000000     0.072319   
C182     C      0.021730000000     0.524050000000     0.673960000000    -0.0874563  
C183     C      0.017440000000     0.472620000000     0.273350000000    -0.0878863  
C184     C      0.992380000000     0.468970000000     0.246120000000     0.0352847  
C185     C      0.965720000000     0.466640000000     0.267320000000    -0.0871128  
C186     C      0.965180000000     0.469560000000     0.314600000000     0.0726837  
C187     C      0.015930000000     0.474980000000     0.320630000000     0.0720578  
C188     C      0.994870000000     0.470000000000     0.195750000000     0.0353001  
C189     C      0.021690000000     0.493950000000     0.174340000000    -0.08749    
C190     C      0.022320000000     0.497060000000     0.127000000000     0.072445   
C191     C      0.971330000000     0.452100000000     0.121330000000     0.072331   
C192     C      0.969730000000     0.448600000000     0.168680000000    -0.0875271  
C193     C      0.951340000000     0.588060000000     0.027680000000    -0.085747   
C194     C      0.920450000000     0.571210000000     0.044900000000     0.0347907  
C195     C      0.905370000000     0.538160000000     0.044110000000    -0.086332   
C196     C      0.920580000000     0.523010000000     0.025940000000     0.0727833  
C197     C      0.966340000000     0.572070000000     0.011480000000     0.072785   
C198     C      0.904030000000     0.587760000000     0.063430000000     0.0348356  
C199     C      0.921020000000     0.618610000000     0.080680000000    -0.0857331  
C200     C      0.905150000000     0.633740000000     0.096880000000     0.07258    
C201     C      0.855940000000     0.588160000000     0.082380000000     0.072838   
C202     C      0.870970000000     0.572830000000     0.064200000000    -0.0864175  
C203     C      0.301960000000     0.116650000000     0.834230000000    -0.087255   
C204     C      0.327480000000     0.136980000000     0.861660000000     0.0348947  
C205     C      0.354850000000     0.160370000000     0.840600000000    -0.0870962  
C206     C      0.355760000000     0.163970000000     0.793340000000     0.0725611  
C207     C      0.303830000000     0.120630000000     0.786930000000     0.0721455  
C208     C      0.325000000000     0.135460000000     0.912080000000     0.0347826  
C209     C      0.298670000000     0.133600000000     0.933720000000    -0.0868956  
C210     C      0.298330000000     0.136230000000     0.981080000000     0.0723441  
C211     C      0.348570000000     0.140410000000     0.986360000000     0.0719524  
C212     C      0.349850000000     0.138240000000     0.939010000000    -0.0873132  
C213     C      0.306960000000     0.186680000000     0.334760000000    -0.0872947  
C214     C      0.332360000000     0.190500000000     0.361360000000     0.0347791  
C215     C      0.358800000000     0.192860000000     0.339340000000    -0.08678    
C216     C      0.358730000000     0.189690000000     0.292010000000     0.0722108  
C217     C      0.307770000000     0.183880000000     0.287490000000     0.0722024  
C218     C      0.330270000000     0.189330000000     0.411850000000     0.0349262  
C219     C      0.355930000000     0.209860000000     0.438940000000    -0.0870547  
C220     C      0.354320000000     0.206170000000     0.486320000000     0.0720158  
C221     C      0.302360000000     0.162790000000     0.480600000000     0.0726948  
C222     C      0.303040000000     0.166050000000     0.433330000000    -0.0872461  
C223     C      0.447390000000     0.086000000000     0.524770000000    -0.0863595  
C224     C      0.417360000000     0.068780000000     0.544440000000     0.03466    
C225     C      0.403110000000     0.035840000000     0.545340000000    -0.0860928  
C226     C      0.418790000000     0.021070000000     0.527290000000     0.0719168  
C227     C      0.462680000000     0.070510000000     0.507960000000     0.0721413  
C228     C      0.401150000000     0.085070000000     0.564010000000     0.0348121  
C229     C      0.418500000000     0.115020000000     0.583830000000    -0.0866277  
C230     C      0.403140000000     0.130440000000     0.600580000000     0.0724501  
C231     C      0.353550000000     0.086830000000     0.581050000000     0.0723403  
C232     C      0.368200000000     0.071010000000     0.563030000000    -0.0862052  
C233     C      0.034680000000     0.403490000000     0.895900000000    -0.0860869  
C234     C      0.067640000000     0.417790000000     0.897090000000     0.034696   
C235     C      0.084730000000     0.447750000000     0.916990000000    -0.0864328  
C236     C      0.069100000000     0.462920000000     0.933680000000     0.0722639  
C237     C      0.019760000000     0.419050000000     0.913860000000     0.0718733  
C238     C      0.084100000000     0.401720000000     0.877590000000     0.0347769  
C239     C      0.070030000000     0.368780000000     0.878170000000    -0.0862238  
C240     C      0.085950000000     0.354250000000     0.860090000000     0.0723567  
C241     C      0.129710000000     0.403930000000     0.841380000000     0.0723381  
C242     C      0.114190000000     0.419180000000     0.858190000000    -0.0865017  
C243     C      0.240070000000     0.212370000000     0.689370000000    -0.0864969  
C244     C      0.257400000000     0.242280000000     0.709340000000     0.0347093  
C245     C      0.290350000000     0.256320000000     0.710410000000    -0.0860832  
C246     C      0.305000000000     0.240470000000     0.692460000000     0.0722921  
C247     C      0.255420000000     0.196920000000     0.672720000000     0.07241    
C248     C      0.241140000000     0.258460000000     0.729100000000     0.0347958  
C249     C      0.255300000000     0.291410000000     0.728610000000    -0.0861763  
C250     C      0.239440000000     0.305990000000     0.746740000000     0.0723586  
C251     C      0.195620000000     0.256360000000     0.765440000000     0.0724905  
C252     C      0.211070000000     0.241060000000     0.748590000000    -0.086592   
C253     C      0.466610000000     0.494660000000     0.673430000000    -0.0870768  
C254     C      0.469070000000     0.470480000000     0.694870000000     0.0349303  
C255     C      0.472600000000     0.448940000000     0.667800000000    -0.0874024  
C256     C      0.474690000000     0.452540000000     0.620460000000     0.0722514  
C257     C      0.469210000000     0.497820000000     0.626120000000     0.0725934  
C258     C      0.470180000000     0.469260000000     0.745290000000     0.0349364  
C259     C      0.493810000000     0.465900000000     0.766900000000    -0.0870381  
C260     C      0.497040000000     0.468690000000     0.814230000000     0.0724566  
C261     C      0.452860000000     0.476060000000     0.819490000000     0.0723574  
C262     C      0.449190000000     0.473760000000     0.772190000000    -0.0874446  
C263     C      0.516180000000     0.540770000000     0.272240000000    -0.0874489  
C264     C      0.520770000000     0.519860000000     0.245300000000     0.0349068  
C265     C      0.524270000000     0.496320000000     0.266880000000    -0.0869798  
C266     C      0.521570000000     0.493110000000     0.314220000000     0.0724219  
C267     C      0.513980000000     0.537130000000     0.319540000000     0.0723409  
C268     C      0.519490000000     0.520970000000     0.194880000000     0.0349615  
C269     C      0.495220000000     0.523330000000     0.173490000000    -0.0870798  
C270     C      0.492060000000     0.520780000000     0.126170000000     0.0725501  
C271     C      0.537500000000     0.515540000000     0.120420000000     0.0723079  
C272     C      0.541100000000     0.517580000000     0.167760000000    -0.0874467  
C273     C      0.856430000000     0.163990000000     0.933390000000    -0.0870848  
C274     C      0.853470000000     0.187890000000     0.911950000000     0.0348779  
C275     C      0.849630000000     0.209230000000     0.939000000000    -0.087355   
C276     C      0.847710000000     0.205710000000     0.986350000000     0.0720157  
C277     C      0.853930000000     0.160870000000     0.980720000000     0.0726178  
C278     C      0.852030000000     0.188920000000     0.861570000000     0.0349959  
C279     C      0.873470000000     0.185300000000     0.834400000000    -0.0875699  
C280     C      0.869610000000     0.182920000000     0.787120000000     0.0723484  
C281     C      0.824250000000     0.188290000000     0.793020000000     0.0725484  
C282     C      0.827690000000     0.191220000000     0.840300000000    -0.0870937  
C283     C      0.806370000000     0.117360000000     0.334570000000    -0.0873843  
C284     C      0.801920000000     0.138350000000     0.361560000000     0.0348764  
C285     C      0.798760000000     0.162110000000     0.340000000000    -0.0869155  
C286     C      0.801580000000     0.165400000000     0.292680000000     0.0723897  
C287     C      0.808760000000     0.121130000000     0.287290000000     0.0722769  
C288     C      0.802820000000     0.137000000000     0.412030000000     0.0349066  
C289     C      0.781590000000     0.141200000000     0.438850000000    -0.0872692  
C290     C      0.784950000000     0.143150000000     0.486210000000     0.0721455  
C291     C      0.829270000000     0.136000000000     0.481180000000     0.072588   
C292     C      0.826380000000     0.133610000000     0.433810000000    -0.0870524  
C293     C      0.115820000000     0.305580000000     0.605750000000    -0.0871597  
C294     C      0.136740000000     0.331030000000     0.578650000000     0.0347861  
C295     C      0.160520000000     0.357930000000     0.600160000000    -0.0869275  
C296     C      0.163930000000     0.358380000000     0.647440000000     0.0724198  
C297     C      0.119710000000     0.306950000000     0.653050000000     0.0720577  
C298     C      0.135470000000     0.328770000000     0.528160000000     0.0347849  
C299     C      0.132230000000     0.301860000000     0.506540000000    -0.0869554  
C300     C      0.134920000000     0.301380000000     0.459220000000     0.0723893  
C301     C      0.142050000000     0.352790000000     0.453790000000     0.0720926  
C302     C      0.139820000000     0.354200000000     0.501150000000    -0.0871282  
C303     C      0.184370000000     0.305670000000     0.105680000000    -0.0871031  
C304     C      0.188820000000     0.331140000000     0.078690000000     0.0348251  
C305     C      0.191710000000     0.357910000000     0.100290000000    -0.0869038  
C306     C      0.188590000000     0.358210000000     0.147550000000     0.0723772  
C307     C      0.181700000000     0.306890000000     0.152990000000     0.0720203  
C308     C      0.187920000000     0.329010000000     0.028180000000     0.0347381  
C309     C      0.164410000000     0.302070000000     0.006420000000    -0.0868404  
C310     C      0.161240000000     0.301700000000     0.959110000000     0.0723165  
C311     C      0.205250000000     0.353300000000     0.953940000000     0.0718775  
C312     C      0.208870000000     0.354590000000     0.001300000000    -0.0869108  
C313     C      0.965860000000     0.210800000000     0.190370000000    -0.0866055  
C314     C      0.978630000000     0.240790000000     0.210140000000     0.0352686  
C315     C      0.959800000000     0.254900000000     0.211420000000    -0.0863006  
C316     C      0.929270000000     0.239160000000     0.193620000000     0.0725429  
C317     C      0.935000000000     0.195440000000     0.173840000000     0.0723648  
C318     C      0.011220000000     0.257080000000     0.229450000000     0.0343129  
C319     C      0.024090000000     0.239820000000     0.248810000000    -0.0865154  
C320     C      0.054900000000     0.255290000000     0.265480000000     0.0723959  
C321     C      0.060390000000     0.304790000000     0.246690000000     0.0721755  
C322     C      0.029900000000     0.290040000000     0.228740000000    -0.0859921  
C323     C      0.293030000000     0.369110000000     0.377920000000    -0.0862352  
C324     C      0.311780000000     0.402050000000     0.377220000000     0.0348089  
C325     C      0.298970000000     0.419380000000     0.357910000000    -0.0864928  
C326     C      0.268150000000     0.403980000000     0.341220000000     0.0723724  
C327     C      0.262550000000     0.354430000000     0.359960000000     0.0724586  
C328     C      0.344370000000     0.418240000000     0.396510000000     0.034843   
C329     C      0.357220000000     0.448210000000     0.416360000000    -0.0864238  
C330     C      0.388070000000     0.463460000000     0.432930000000     0.0723414  
C331     C      0.393610000000     0.419660000000     0.413010000000     0.0726283  
C332     C      0.363100000000     0.404030000000     0.395160000000    -0.0863614  
C333     C      0.539990000000     0.020100000000     0.668110000000    -0.087719   
C334     C      0.518860000000     0.994750000000     0.695120000000     0.0352219  
C335     C      0.495220000000     0.967780000000     0.673550000000    -0.0870248  
C336     C      0.492170000000     0.967160000000     0.626180000000     0.0725363  
C337     C      0.536460000000     0.018580000000     0.620770000000     0.0720353  
C338     C      0.519990000000     0.997120000000     0.745570000000     0.0352707  
C339     C      0.515740000000     0.971780000000     0.772630000000    -0.087498   
C340     C      0.513650000000     0.973300000000     0.819950000000     0.0724683  
C341     C      0.520720000000     0.024690000000     0.814430000000     0.0721886  
C342     C      0.523250000000     0.024080000000     0.767080000000    -0.0873551  
C343     C      0.465560000000     0.968150000000     0.173690000000    -0.0871662  
C344     C      0.468220000000     0.994860000000     0.195130000000     0.0352944  
C345     C      0.472070000000     0.020070000000     0.168100000000    -0.0878556  
C346     C      0.474310000000     0.018640000000     0.120780000000     0.072021   
C347     C      0.468350000000     0.967690000000     0.126390000000     0.0727959  
C348     C      0.469420000000     0.997210000000     0.245530000000     0.0352969  
C349     C      0.448060000000     0.972020000000     0.272560000000    -0.087503   
C350     C      0.451770000000     0.973420000000     0.319880000000     0.0723233  
C351     C      0.496830000000     0.024330000000     0.314270000000     0.0724197  
C352     C      0.493530000000     0.023890000000     0.266970000000    -0.0874883  
C353     C      0.626740000000     0.084710000000     0.043820000000    -0.0862624  
C354     C      0.644810000000     0.069710000000     0.044540000000     0.0346695  
C355     C      0.630820000000     0.038820000000     0.027410000000    -0.0855385  
C356     C      0.599800000000     0.023760000000     0.011250000000     0.0721124  
C357     C      0.596370000000     0.069460000000     0.025690000000     0.0726868  
C358     C      0.677830000000     0.086270000000     0.062880000000     0.0348117  
C359     C      0.695800000000     0.119320000000     0.063540000000    -0.0863657  
C360     C      0.726170000000     0.134510000000     0.081660000000     0.0727772  
C361     C      0.722940000000     0.085480000000     0.096210000000     0.0725464  
C362     C      0.691920000000     0.069450000000     0.080070000000    -0.0857647  
C363     C      0.180800000000     0.875560000000     0.606950000000    -0.0872075  
C364     C      0.185910000000     0.855120000000     0.579670000000     0.0348804  
C365     C      0.189910000000     0.831790000000     0.600900000000    -0.0870257  
C366     C      0.187320000000     0.828350000000     0.648180000000     0.0724999  
C367     C      0.178770000000     0.871740000000     0.654280000000     0.0721325  
C368     C      0.184820000000     0.856430000000     0.529230000000     0.0348912  
C369     C      0.160300000000     0.858220000000     0.507590000000    -0.0869636  
C370     C      0.157170000000     0.855340000000     0.460250000000     0.0724528  
C371     C      0.203150000000     0.851010000000     0.455010000000     0.0721764  
C372     C      0.206760000000     0.853440000000     0.502320000000    -0.0874031  
C373     C      0.160770000000     0.798820000000     0.101960000000    -0.0869328  
C374     C      0.136890000000     0.801530000000     0.079910000000     0.0348507  
C375     C      0.115360000000     0.805430000000     0.106490000000    -0.0872762  
C376     C      0.118840000000     0.807960000000     0.153810000000     0.0721213  
C377     C      0.163730000000     0.801730000000     0.149330000000     0.0724375  
C378     C      0.136090000000     0.802910000000     0.029430000000     0.034812   
C379     C      0.141030000000     0.782300000000     0.002240000000    -0.0869979  
C380     C      0.143220000000     0.786130000000     0.954890000000     0.0719299  
C381     C      0.135120000000     0.829800000000     0.960800000000     0.0725181  
C382     C      0.132430000000     0.826410000000     0.008050000000    -0.0870073  
C383     C      0.298920000000     0.877030000000     0.857500000000    -0.0867166  
C384     C      0.311630000000     0.907000000000     0.877240000000     0.0349199  
C385     C      0.292830000000     0.921160000000     0.878290000000    -0.0863054  
C386     C      0.262330000000     0.905410000000     0.860370000000     0.0724811  
C387     C      0.268110000000     0.861680000000     0.840850000000     0.0725511  
C388     C      0.344180000000     0.923260000000     0.896640000000     0.0348005  
C389     C      0.356980000000     0.906000000000     0.916290000000    -0.0864761  
C390     C      0.387810000000     0.921470000000     0.932960000000     0.072286   
C391     C      0.393410000000     0.970920000000     0.913510000000     0.0725861  
C392     C      0.362930000000     0.956180000000     0.895600000000    -0.0863293  
C393     C      0.798550000000     0.633260000000     0.840700000000    -0.0869831  
C394     C      0.802070000000     0.660320000000     0.862200000000     0.0349236  
C395     C      0.806640000000     0.685790000000     0.835190000000    -0.0874543  
C396     C      0.808830000000     0.684310000000     0.787890000000     0.0723251  
C397     C      0.801240000000     0.632710000000     0.793370000000     0.0723609  
C398     C      0.803340000000     0.662750000000     0.912620000000     0.0348979  
C399     C      0.781720000000     0.637810000000     0.939790000000    -0.0873552  
C400     C      0.785310000000     0.639410000000     0.987140000000     0.0720145  
C401     C      0.830750000000     0.690020000000     0.981300000000     0.0725925  
C402     C      0.827610000000     0.689370000000     0.933970000000    -0.0870355  
C403     C      0.850230000000     0.637440000000     0.439730000000    -0.0873838  
C404     C      0.853820000000     0.662540000000     0.412660000000     0.0349352  
C405     C      0.856350000000     0.689200000000     0.434130000000    -0.0870957  
C406     C      0.853750000000     0.689730000000     0.481440000000     0.0727167  
C407     C      0.848140000000     0.638930000000     0.487080000000     0.0722121  
C408     C      0.852700000000     0.660240000000     0.362240000000     0.0349036  
C409     C      0.873690000000     0.685730000000     0.335330000000    -0.0874152  
C410     C      0.870010000000     0.684390000000     0.288040000000     0.0723156  
C411     C      0.825820000000     0.632900000000     0.293290000000     0.0724917  
C412     C      0.829060000000     0.633300000000     0.340610000000    -0.086999   
C413     C      0.631020000000     0.588540000000     0.527060000000    -0.08588    
C414     C      0.644960000000     0.571620000000     0.544390000000     0.0348625  
C415     C      0.626910000000     0.538570000000     0.543670000000    -0.0865021  
C416     C      0.596580000000     0.523490000000     0.525410000000     0.0729429  
C417     C      0.600040000000     0.572610000000     0.510780000000     0.072725   
C418     C      0.677910000000     0.588070000000     0.562950000000     0.0347509  
C419     C      0.695930000000     0.573020000000     0.563740000000    -0.0863632  
C420     C      0.726260000000     0.588210000000     0.582020000000     0.0728343  
C421     C      0.722850000000     0.633910000000     0.596530000000     0.0726376  
C422     C      0.691880000000     0.618920000000     0.580220000000    -0.0857246  
C423     C      0.029590000000     0.736680000000     0.730540000000    -0.0861054  
C424     C      0.010750000000     0.750800000000     0.731430000000     0.0343354  
C425     C      0.023400000000     0.780780000000     0.751150000000    -0.0865231  
C426     C      0.054190000000     0.796160000000     0.767940000000     0.0724461  
C427     C      0.060050000000     0.752460000000     0.748580000000     0.0723191  
C428     C      0.978250000000     0.734500000000     0.711880000000     0.0353037  
C429     C      0.965460000000     0.751720000000     0.692080000000    -0.0865733  
C430     C      0.934680000000     0.736220000000     0.675230000000     0.0724125  
C431     C      0.929100000000     0.686790000000     0.694790000000     0.0725732  
C432     C      0.959540000000     0.701570000000     0.712880000000    -0.0864624  
H1       H      0.707990000000     0.013040000000     0.692180000000     0.050751   
H2       H      0.735250000000     0.066720000000     0.665090000000     0.0260241  
H3       H      0.824070000000     0.073390000000     0.692630000000     0.025857   
H4       H      0.798080000000     0.021360000000     0.724370000000     0.0501377  
H5       H      0.772460000000     0.969860000000     0.716190000000     0.0504522  
H6       H      0.746680000000     0.917830000000     0.747920000000     0.0258483  
H7       H      0.664210000000     0.923930000000     0.775300000000     0.0260653  
H8       H      0.690360000000     0.977610000000     0.748210000000     0.0510272  
H9       H      0.861410000000     0.313160000000     0.585640000000     0.0507222  
H10      H      0.834640000000     0.259680000000     0.613770000000     0.0260348  
H11      H      0.913830000000     0.249720000000     0.577780000000     0.0267952  
H12      H      0.940480000000     0.302270000000     0.546610000000     0.0513406  
H13      H      0.967010000000     0.355280000000     0.560960000000     0.0514428  
H14      H      0.993010000000     0.407850000000     0.529840000000     0.0268176  
H15      H      0.903950000000     0.398020000000     0.493540000000     0.0260378  
H16      H      0.877140000000     0.344530000000     0.521620000000     0.050685   
H17      H      0.131710000000     0.688300000000     0.393270000000     0.050297   
H18      H      0.157910000000     0.740390000000     0.361630000000     0.0258612  
H19      H      0.069240000000     0.733700000000     0.332690000000     0.0260468  
H20      H      0.041830000000     0.680020000000     0.359740000000     0.0508382  
H21      H      0.023970000000     0.644680000000     0.415970000000     0.0508332  
H22      H      0.997550000000     0.590930000000     0.442740000000     0.0264906  
H23      H      0.079950000000     0.584580000000     0.415960000000     0.0258586  
H24      H      0.106040000000     0.636740000000     0.384610000000     0.0502844  
H25      H      0.529370000000     0.646340000000     0.918850000000     0.0506855  
H26      H      0.502760000000     0.592880000000     0.947030000000     0.0260556  
H27      H      0.582090000000     0.583180000000     0.910980000000     0.0267524  
H28      H      0.608590000000     0.635730000000     0.879770000000     0.0513401  
H29      H      0.634990000000     0.688800000000     0.893840000000     0.0512804  
H30      H      0.660750000000     0.741340000000     0.862600000000     0.0267244  
H31      H      0.571460000000     0.731050000000     0.826550000000     0.0260759  
H32      H      0.544900000000     0.677600000000     0.854760000000     0.0506732  
H33      H      0.211370000000     0.011590000000     0.189020000000     0.0504642  
H34      H      0.238290000000     0.065090000000     0.161040000000     0.0260386  
H35      H      0.327280000000     0.074490000000     0.196620000000     0.0266902  
H36      H      0.301180000000     0.021930000000     0.227760000000     0.0511482  
H37      H      0.274570000000     0.968990000000     0.213810000000     0.0514271  
H38      H      0.247820000000     0.916420000000     0.244910000000     0.0267234  
H39      H      0.168560000000     0.926400000000     0.280350000000     0.0260182  
H40      H      0.195440000000     0.979910000000     0.252400000000     0.0507978  
H41      H      0.376220000000     0.346360000000     0.024890000000     0.0509857  
H42      H      0.403570000000     0.400060000000     0.997940000000     0.0260297  
H43      H      0.492310000000     0.406390000000     0.024870000000     0.0258689  
H44      H      0.466220000000     0.354270000000     0.056400000000     0.0503248  
H45      H      0.440220000000     0.302650000000     0.047960000000     0.0502925  
H46      H      0.414220000000     0.250600000000     0.079800000000     0.0258267  
H47      H      0.332460000000     0.257680000000     0.108720000000     0.0260886  
H48      H      0.358840000000     0.311290000000     0.081490000000     0.0509994  
H49      H      0.616500000000     0.763680000000     0.516340000000     0.0515329  
H50      H      0.618890000000     0.769820000000     0.434040000000     0.0262779  
H51      H      0.710720000000     0.851270000000     0.444730000000     0.0265383  
H52      H      0.709080000000     0.845520000000     0.526950000000     0.0522038  
H53      H      0.706020000000     0.808520000000     0.590650000000     0.0516317  
H54      H      0.703610000000     0.812250000000     0.672940000000     0.0262715  
H55      H      0.611650000000     0.801650000000     0.662190000000     0.0265067  
H56      H      0.613310000000     0.797560000000     0.579990000000     0.0521966  
H57      H      0.615600000000     0.848070000000     0.016830000000     0.0514176  
H58      H      0.617490000000     0.843970000000     0.934580000000     0.0264689  
H59      H      0.710510000000     0.857080000000     0.943920000000     0.0265654  
H60      H      0.709290000000     0.861260000000     0.026080000000     0.0520052  
H61      H      0.612970000000     0.813050000000     0.080870000000     0.0519886  
H62      H      0.611770000000     0.807690000000     0.163050000000     0.0265481  
H63      H      0.704670000000     0.887670000000     0.172300000000     0.0264768  
H64      H      0.706540000000     0.893620000000     0.090030000000     0.0514805  
H65      H      0.793390000000     0.778340000000     0.188510000000     0.0506736  
H66      H      0.820050000000     0.751480000000     0.160510000000     0.026108   
H67      H      0.740740000000     0.662530000000     0.196590000000     0.0267709  
H68      H      0.714180000000     0.688580000000     0.227640000000     0.0513078  
H69      H      0.687730000000     0.715190000000     0.213390000000     0.0512865  
H70      H      0.661860000000     0.741930000000     0.244450000000     0.026767   
H71      H      0.751050000000     0.821000000000     0.280380000000     0.0261283  
H72      H      0.777720000000     0.794150000000     0.252360000000     0.0507272  
H73      H      0.613690000000     0.965880000000     0.414730000000     0.0509703  
H74      H      0.586240000000     0.992110000000     0.441880000000     0.0260971  
H75      H      0.497600000000     0.909760000000     0.414660000000     0.0258605  
H76      H      0.523770000000     0.883910000000     0.382860000000     0.0503135  
H77      H      0.549570000000     0.858200000000     0.390880000000     0.0502655  
H78      H      0.575500000000     0.832110000000     0.359090000000     0.0258494  
H79      H      0.657770000000     0.920750000000     0.331690000000     0.0261101  
H80      H      0.631460000000     0.948130000000     0.358830000000     0.0509189  
H81      H      0.945540000000     0.478700000000     0.748060000000     0.0520376  
H82      H      0.944290000000     0.473020000000     0.830220000000     0.0264875  
H83      H      0.037080000000     0.553130000000     0.839910000000     0.0264931  
H84      H      0.039000000000     0.559390000000     0.757720000000     0.0514549  
H85      H      0.948210000000     0.514110000000     0.684350000000     0.051472   
H86      H      0.950250000000     0.510460000000     0.602030000000     0.0264629  
H87      H      0.043230000000     0.523470000000     0.611300000000     0.0265087  
H88      H      0.041870000000     0.527230000000     0.693520000000     0.0520556  
H89      H      0.945910000000     0.463960000000     0.247370000000     0.0522108  
H90      H      0.944450000000     0.468550000000     0.329520000000     0.0264922  
H91      H      0.036110000000     0.478430000000     0.340380000000     0.0263222  
H92      H      0.038320000000     0.474180000000     0.258150000000     0.0515702  
H93      H      0.041580000000     0.511050000000     0.194150000000     0.0522221  
H94      H      0.043180000000     0.516500000000     0.111920000000     0.0264972  
H95      H      0.951080000000     0.435400000000     0.101670000000     0.0262949  
H96      H      0.948720000000     0.429560000000     0.184050000000     0.0515612  
H97      H      0.882040000000     0.523650000000     0.058110000000     0.0502824  
H98      H      0.907880000000     0.497470000000     0.026260000000     0.0258513  
H99      H      0.990250000000     0.586050000000     0.998880000000     0.0260719  
H100     H      0.964040000000     0.613500000000     0.026080000000     0.0510198  
H101     H      0.946470000000     0.631200000000     0.082290000000     0.050985   
H102     H      0.919230000000     0.657610000000     0.109510000000     0.0260593  
H103     H      0.830390000000     0.575580000000     0.082050000000     0.0258332  
H104     H      0.856370000000     0.549540000000     0.050190000000     0.0503235  
H105     H      0.375050000000     0.176700000000     0.860640000000     0.0520064  
H106     H      0.377130000000     0.182950000000     0.778600000000     0.02644    
H107     H      0.283320000000     0.104750000000     0.767010000000     0.0263866  
H108     H      0.280500000000     0.098050000000     0.849280000000     0.0514287  
H109     H      0.279010000000     0.131570000000     0.914060000000     0.0520347  
H110     H      0.277900000000     0.135680000000     0.996330000000     0.0264994  
H111     H      0.368640000000     0.143250000000     0.005830000000     0.0264217  
H112     H      0.370450000000     0.139340000000     0.923530000000     0.0513786  
H113     H      0.378890000000     0.195680000000     0.358680000000     0.0519097  
H114     H      0.379280000000     0.190670000000     0.276490000000     0.0265557  
H115     H      0.287280000000     0.180220000000     0.268340000000     0.0264766  
H116     H      0.286260000000     0.185210000000     0.350480000000     0.0513713  
H117     H      0.377300000000     0.228400000000     0.423590000000     0.0513473  
H118     H      0.374910000000     0.222160000000     0.506010000000     0.0263311  
H119     H      0.281050000000     0.143890000000     0.495620000000     0.026509   
H120     H      0.282740000000     0.149550000000     0.413640000000     0.0520386  
H121     H      0.380200000000     0.021370000000     0.560730000000     0.0511552  
H122     H      0.406930000000     0.995590000000     0.529190000000     0.0271103  
H123     H      0.485970000000     0.084840000000     0.493470000000     0.0260665  
H124     H      0.459160000000     0.111400000000     0.521980000000     0.0506453  
H125     H      0.443890000000     0.126620000000     0.586740000000     0.0507291  
H126     H      0.417600000000     0.153670000000     0.615140000000     0.02608    
H127     H      0.328070000000     0.075180000000     0.579030000000     0.0266168  
H128     H      0.353630000000     0.048160000000     0.547560000000     0.0512423  
H129     H      0.110130000000     0.459550000000     0.920040000000     0.0506476  
H130     H      0.083340000000     0.486160000000     0.948340000000     0.0260367  
H131     H      0.994280000000     0.407170000000     0.911720000000     0.0270982  
H132     H      0.020300000000     0.380650000000     0.880320000000     0.0511694  
H133     H      0.047090000000     0.354120000000     0.893350000000     0.0512265  
H134     H      0.074260000000     0.328770000000     0.861740000000     0.0265785  
H135     H      0.153040000000     0.418460000000     0.827110000000     0.0261051  
H136     H      0.125830000000     0.444580000000     0.855590000000     0.0506667  
H137     H      0.304900000000     0.279150000000     0.725940000000     0.0512624  
H138     H      0.330470000000     0.252080000000     0.694580000000     0.026669   
H139     H      0.240960000000     0.173710000000     0.658090000000     0.0260444  
H140     H      0.214680000000     0.200800000000     0.686310000000     0.0506566  
H141     H      0.278260000000     0.306020000000     0.713440000000     0.0512638  
H142     H      0.251180000000     0.331480000000     0.745120000000     0.0266034  
H143     H      0.172290000000     0.241850000000     0.779730000000     0.0260438  
H144     H      0.199380000000     0.215660000000     0.751190000000     0.050707   
H145     H      0.474230000000     0.429700000000     0.683160000000     0.0514445  
H146     H      0.478050000000     0.435720000000     0.600810000000     0.0262773  
H147     H      0.468080000000     0.517430000000     0.611050000000     0.0265417  
H148     H      0.464020000000     0.511900000000     0.693190000000     0.052148   
H149     H      0.510600000000     0.462520000000     0.747250000000     0.052037   
H150     H      0.516250000000     0.466890000000     0.829470000000     0.0264834  
H151     H      0.436480000000     0.480210000000     0.838940000000     0.0264816  
H152     H      0.430360000000     0.476070000000     0.756720000000     0.0515056  
H153     H      0.527720000000     0.479590000000     0.247200000000     0.0520214  
H154     H      0.523480000000     0.473970000000     0.329440000000     0.0264998  
H155     H      0.509760000000     0.553450000000     0.339020000000     0.02649    
H156     H      0.513760000000     0.559530000000     0.256800000000     0.0515207  
H157     H      0.477930000000     0.525810000000     0.193300000000     0.0521752  
H158     H      0.472390000000     0.521830000000     0.111130000000     0.0265552  
H159     H      0.554390000000     0.512300000000     0.100730000000     0.0262795  
H160     H      0.560410000000     0.516040000000     0.183080000000     0.0514684  
H161     H      0.847590000000     0.228230000000     0.923610000000     0.0514735  
H162     H      0.844070000000     0.222360000000     0.005990000000     0.0263921  
H163     H      0.855410000000     0.141460000000     0.995820000000     0.0264715  
H164     H      0.859290000000     0.146930000000     0.913600000000     0.0521551  
H165     H      0.892800000000     0.183770000000     0.849650000000     0.0515739  
H166     H      0.886370000000     0.179490000000     0.767420000000     0.0263167  
H167     H      0.804530000000     0.189270000000     0.778040000000     0.0265014  
H168     H      0.810550000000     0.193890000000     0.860200000000     0.0521727  
H169     H      0.795460000000     0.178940000000     0.359670000000     0.0519849  
H170     H      0.799890000000     0.184670000000     0.277510000000     0.0265266  
H171     H      0.812830000000     0.104720000000     0.267770000000     0.026463   
H172     H      0.808490000000     0.098410000000     0.349950000000     0.0514229  
H173     H      0.762770000000     0.143490000000     0.423290000000     0.0513865  
H174     H      0.768400000000     0.147080000000     0.505620000000     0.0264611  
H175     H      0.848430000000     0.134160000000     0.496520000000     0.0265054  
H176     H      0.843380000000     0.130480000000     0.414280000000     0.0520081  
H177     H      0.177310000000     0.378070000000     0.580450000000     0.0519202  
H178     H      0.183240000000     0.379360000000     0.662500000000     0.0265088  
H179     H      0.103400000000     0.286470000000     0.672660000000     0.0263681  
H180     H      0.096880000000     0.284490000000     0.590430000000     0.0513226  
H181     H      0.129010000000     0.281740000000     0.526170000000     0.051904   
H182     H      0.133170000000     0.280400000000     0.444080000000     0.0264854  
H183     H      0.146100000000     0.373260000000     0.434240000000     0.026365   
H184     H      0.142040000000     0.375290000000     0.516570000000     0.0513499  
H185     H      0.194970000000     0.378050000000     0.080660000000     0.0519335  
H186     H      0.190090000000     0.379090000000     0.162670000000     0.0265657  
H187     H      0.177600000000     0.286400000000     0.172510000000     0.0263517  
H188     H      0.182410000000     0.284680000000     0.090290000000     0.0513329  
H189     H      0.147600000000     0.281840000000     0.025940000000     0.0519073  
H190     H      0.142120000000     0.280670000000     0.943870000000     0.0265294  
H191     H      0.221550000000     0.373870000000     0.934480000000     0.0263647  
H192     H      0.227630000000     0.375720000000     0.016830000000     0.0513124  
H193     H      0.968180000000     0.277760000000     0.226940000000     0.0513984  
H194     H      0.915540000000     0.250910000000     0.195810000000     0.02677    
H195     H      0.926080000000     0.172190000000     0.159250000000     0.0260544  
H196     H      0.979580000000     0.199140000000     0.187270000000     0.0508526  
H197     H      0.010490000000     0.214430000000     0.251500000000     0.0505822  
H198     H      0.063880000000     0.240910000000     0.279740000000     0.0260655  
H199     H      0.074030000000     0.330270000000     0.244960000000     0.0266476  
H200     H      0.021420000000     0.304550000000     0.213570000000     0.0511066  
H201     H      0.312620000000     0.444780000000     0.355260000000     0.0506882  
H202     H      0.259210000000     0.418410000000     0.327000000000     0.0260983  
H203     H      0.248870000000     0.328950000000     0.361670000000     0.0265988  
H204     H      0.301450000000     0.354540000000     0.393060000000     0.0512549  
H205     H      0.343570000000     0.459960000000     0.419490000000     0.0506345  
H206     H      0.397050000000     0.486700000000     0.447580000000     0.0260221  
H207     H      0.407260000000     0.407830000000     0.410790000000     0.0267483  
H208     H      0.354660000000     0.381190000000     0.379580000000     0.0513323  
H209     H      0.478300000000     0.947710000000     0.693230000000     0.0520223  
H210     H      0.472970000000     0.946160000000     0.611000000000     0.0264732  
H211     H      0.552960000000     0.039000000000     0.601240000000     0.0264722  
H212     H      0.558860000000     0.041210000000     0.683500000000     0.0514704  
H213     H      0.513550000000     0.950680000000     0.757300000000     0.0515151  
H214     H      0.509710000000     0.952880000000     0.839530000000     0.0264594  
H215     H      0.522470000000     0.045680000000     0.829560000000     0.0264717  
H216     H      0.526420000000     0.044140000000     0.747350000000     0.0520211  
H217     H      0.473890000000     0.041000000000     0.183490000000     0.051526   
H218     H      0.477940000000     0.038940000000     0.101170000000     0.026256   
H219     H      0.467090000000     0.946900000000     0.111300000000     0.0265244  
H220     H      0.462720000000     0.948220000000     0.193460000000     0.0522011  
H221     H      0.428900000000     0.951110000000     0.257180000000     0.0515234  
H222     H      0.435090000000     0.953130000000     0.339480000000     0.0262611  
H223     H      0.516400000000     0.045080000000     0.329360000000     0.0265097  
H224     H      0.510620000000     0.043800000000     0.247200000000     0.0522054  
H225     H      0.643620000000     0.026170000000     0.025820000000     0.0508069  
H226     H      0.589900000000     0.999870000000     0.998680000000     0.026306   
H227     H      0.583480000000     0.082120000000     0.026030000000     0.0258855  
H228     H      0.635490000000     0.108020000000     0.057820000000     0.0502486  
H229     H      0.686960000000     0.133810000000     0.049500000000     0.0502833  
H230     H      0.738990000000     0.160050000000     0.081270000000     0.0258532  
H231     H      0.732920000000     0.071550000000     0.108830000000     0.0259865  
H232     H      0.679200000000     0.044020000000     0.081710000000     0.0508919  
H233     H      0.193730000000     0.815380000000     0.580990000000     0.0519831  
H234     H      0.189710000000     0.809400000000     0.663050000000     0.0264767  
H235     H      0.174190000000     0.887680000000     0.674100000000     0.0264183  
H236     H      0.177920000000     0.894110000000     0.591760000000     0.0515017  
H237     H      0.142770000000     0.860400000000     0.527230000000     0.0521105  
H238     H      0.137280000000     0.855870000000     0.445000000000     0.0265254  
H239     H      0.220290000000     0.848030000000     0.435560000000     0.0263429  
H240     H      0.226280000000     0.852370000000     0.517810000000     0.0514493  
H241     H      0.096280000000     0.807170000000     0.090750000000     0.0513775  
H242     H      0.102060000000     0.811690000000     0.172950000000     0.0264564  
H243     H      0.183160000000     0.800480000000     0.164880000000     0.0265098  
H244     H      0.177980000000     0.795920000000     0.082630000000     0.0519852  
H245     H      0.143630000000     0.763600000000     0.017490000000     0.0513682  
H246     H      0.147660000000     0.770060000000     0.935140000000     0.0263262  
H247     H      0.132940000000     0.848860000000     0.945860000000     0.026563   
H248     H      0.128780000000     0.842970000000     0.027840000000     0.0520289  
H249     H      0.301210000000     0.944030000000     0.893720000000     0.0513881  
H250     H      0.248580000000     0.917140000000     0.862410000000     0.0266555  
H251     H      0.259230000000     0.838410000000     0.826330000000     0.0260833  
H252     H      0.312630000000     0.865350000000     0.854560000000     0.0507707  
H253     H      0.343320000000     0.880620000000     0.919180000000     0.0507158  
H254     H      0.396760000000     0.907120000000     0.947440000000     0.0260398  
H255     H      0.407080000000     0.996400000000     0.911500000000     0.0268175  
H256     H      0.354510000000     0.970670000000     0.880190000000     0.0513615  
H257     H      0.809070000000     0.706980000000     0.850560000000     0.0515438  
H258     H      0.813040000000     0.704820000000     0.768350000000     0.0265224  
H259     H      0.799320000000     0.611650000000     0.778210000000     0.026494   
H260     H      0.795120000000     0.613110000000     0.860450000000     0.0520115  
H261     H      0.762420000000     0.616970000000     0.924510000000     0.0514375  
H262     H      0.768410000000     0.619320000000     0.006860000000     0.0263861  
H263     H      0.850420000000     0.710740000000     0.996300000000     0.0265256  
H264     H      0.844910000000     0.709110000000     0.914120000000     0.0521523  
H265     H      0.858980000000     0.709050000000     0.414370000000     0.0521923  
H266     H      0.854930000000     0.710490000000     0.496520000000     0.0265687  
H267     H      0.844720000000     0.618720000000     0.506720000000     0.0262457  
H268     H      0.848550000000     0.616560000000     0.424370000000     0.0514576  
H269     H      0.892530000000     0.706830000000     0.350800000000     0.0515456  
H270     H      0.886390000000     0.704930000000     0.268580000000     0.0265138  
H271     H      0.806610000000     0.611930000000     0.278050000000     0.0265     
H272     H      0.812260000000     0.613140000000     0.360260000000     0.0520287  
H273     H      0.635650000000     0.524020000000     0.557780000000     0.0503336  
H274     H      0.583690000000     0.497950000000     0.525770000000     0.0258162  
H275     H      0.590180000000     0.586630000000     0.498080000000     0.0260056  
H276     H      0.643830000000     0.613970000000     0.525450000000     0.051003   
H277     H      0.687180000000     0.549730000000     0.549660000000     0.0502749  
H278     H      0.739130000000     0.575530000000     0.581710000000     0.0258389  
H279     H      0.732740000000     0.657790000000     0.609190000000     0.0260394  
H280     H      0.679090000000     0.631590000000     0.581790000000     0.0509235  
H281     H      0.009660000000     0.792430000000     0.753980000000     0.0506204  
H282     H      0.063020000000     0.819420000000     0.782430000000     0.0260645  
H283     H      0.073830000000     0.740750000000     0.746650000000     0.0266392  
H284     H      0.021270000000     0.713810000000     0.715120000000     0.0511326  
H285     H      0.979100000000     0.777110000000     0.689210000000     0.0508725  
H286     H      0.925740000000     0.750540000000     0.660640000000     0.0260656  
H287     H      0.915460000000     0.661320000000     0.696770000000     0.0267705  
H288     H      0.967950000000     0.687110000000     0.728390000000     0.0514632  
N1       N      0.781610000000     0.073940000000     0.676640000000    -0.198031   
N2       N      0.703530000000     0.917000000000     0.763830000000    -0.197977   
N3       N      0.872170000000     0.250690000000     0.597770000000    -0.197773   
N4       N      0.950430000000     0.406950000000     0.509710000000    -0.197798   
N5       N      0.115540000000     0.740930000000     0.344940000000    -0.197892   
N6       N      0.036810000000     0.583850000000     0.431520000000    -0.197878   
N7       N      0.540360000000     0.584010000000     0.930980000000    -0.197688   
N8       N      0.618040000000     0.740220000000     0.842590000000    -0.197694   
N9       N      0.284750000000     0.073800000000     0.176830000000    -0.197717   
N10      N      0.206120000000     0.917400000000     0.264640000000    -0.197805   
N11      N      0.449890000000     0.407120000000     0.009250000000    -0.197955   
N12      N      0.371400000000     0.250250000000     0.096450000000    -0.198034   
N13      N      0.664680000000     0.811380000000     0.433360000000    -0.1978     
N14      N      0.657750000000     0.807900000000     0.673590000000    -0.197808   
N15      N      0.663860000000     0.849550000000     0.933220000000    -0.197708   
N16      N      0.658370000000     0.846850000000     0.173710000000    -0.197786   
N17      N      0.782460000000     0.705040000000     0.176560000000    -0.197639   
N18      N      0.704510000000     0.783540000000     0.264410000000    -0.197555   
N19      N      0.539960000000     0.952860000000     0.430510000000    -0.197934   
N20      N      0.618560000000     0.874470000000     0.343160000000    -0.197833   
N21      N      0.990820000000     0.512220000000     0.841090000000    -0.197678   
N22      N      0.996610000000     0.516020000000     0.600630000000    -0.197636   
N23      N      0.990410000000     0.474460000000     0.340960000000    -0.1977     
N24      N      0.997010000000     0.476770000000     0.100770000000    -0.197702   
N25      N      0.950990000000     0.539800000000     0.010370000000    -0.197945   
N26      N      0.872860000000     0.618530000000     0.097990000000    -0.198034   
N27      N      0.330190000000     0.144720000000     0.766770000000    -0.197673   
N28      N      0.323470000000     0.140480000000     0.007120000000    -0.197595   
N29      N      0.333030000000     0.184330000000     0.266400000000    -0.197621   
N30      N      0.328060000000     0.182210000000     0.506850000000    -0.197656   
N31      N      0.448560000000     0.038280000000     0.509400000000    -0.197592   
N32      N      0.370920000000     0.116560000000     0.598940000000    -0.197708   
N33      N      0.036860000000     0.448760000000     0.931940000000    -0.197596   
N34      N      0.115780000000     0.371710000000     0.842520000000    -0.197716   
N35      N      0.287630000000     0.210740000000     0.674550000000    -0.197706   
N36      N      0.209590000000     0.288570000000     0.764270000000    -0.197723   
N37      N      0.474010000000     0.477380000000     0.599900000000    -0.197845   
N38      N      0.477220000000     0.474550000000     0.840220000000    -0.19778    
N39      N      0.515630000000     0.512850000000     0.340250000000    -0.197756   
N40      N      0.512590000000     0.516130000000     0.099900000000    -0.197812   
N41      N      0.848810000000     0.181090000000     0.006930000000    -0.197749   
N42      N      0.844600000000     0.183390000000     0.766720000000    -0.197837   
N43      N      0.807340000000     0.145550000000     0.266620000000    -0.197711   
N44      N      0.809230000000     0.141560000000     0.507110000000    -0.197781   
N45      N      0.144190000000     0.332780000000     0.673610000000    -0.197589   
N46      N      0.140620000000     0.326970000000     0.433120000000    -0.197598   
N47      N      0.182810000000     0.332580000000     0.173620000000    -0.197537   
N48      N      0.180980000000     0.327430000000     0.933140000000    -0.197545   
N49      N      0.916770000000     0.209440000000     0.175630000000    -0.197766   
N50      N      0.073000000000     0.287520000000     0.264250000000    -0.197699   
N51      N      0.250010000000     0.371750000000     0.342410000000    -0.197795   
N52      N      0.406190000000     0.449350000000     0.431100000000    -0.197867   
N53      N      0.512130000000     0.992690000000     0.600070000000    -0.197643   
N54      N      0.515150000000     0.999170000000     0.840580000000    -0.197672   
N55      N      0.473490000000     0.993060000000     0.100220000000    -0.197706   
N56      N      0.476590000000     0.998960000000     0.340430000000    -0.197707   
N57      N      0.582820000000     0.039070000000     0.010100000000    -0.197756   
N58      N      0.739830000000     0.117760000000     0.097300000000    -0.198      
N59      N      0.181040000000     0.847690000000     0.674610000000    -0.197693   
N60      N      0.177950000000     0.850910000000     0.434260000000    -0.197657   
N61      N      0.143470000000     0.807160000000     0.174940000000    -0.197651   
N62      N      0.141210000000     0.810290000000     0.934460000000    -0.197684   
N63      N      0.249860000000     0.875660000000     0.842510000000    -0.197868   
N64      N      0.405960000000     0.953690000000     0.931390000000    -0.197774   
N65      N      0.807160000000     0.658360000000     0.767250000000    -0.19773    
N66      N      0.810220000000     0.664910000000     0.007620000000    -0.197733   
N67      N      0.848890000000     0.664470000000     0.507650000000    -0.197832   
N68      N      0.845630000000     0.658570000000     0.267300000000    -0.197718   
N69      N      0.583060000000     0.540340000000     0.509690000000    -0.198186   
N70      N      0.739800000000     0.618570000000     0.597700000000    -0.198091   
N71      N      0.072460000000     0.782210000000     0.766420000000    -0.197799   
N72      N      0.916570000000     0.704000000000     0.676760000000    -0.197767   
Ni1      Ni     0.826830000000     0.636620000000     0.640830000000     1.00516    
Ni2      Ni     0.829380000000     0.686180000000     0.634120000000     1.00198    
Ni3      Ni     0.162960000000     0.805770000000     0.800430000000     1.00309    
Ni4      Ni     0.159340000000     0.852130000000     0.808630000000     1.00387    
Ni5      Ni     0.493190000000     0.971440000000     0.973800000000     1.00098    
Ni6      Ni     0.495750000000     0.021010000000     0.967110000000     1.00544    
Ni7      Ni     0.159910000000     0.304760000000     0.306970000000     1.00291    
Ni8      Ni     0.163120000000     0.354590000000     0.299650000000     1.00244    
Ni9      Ni     0.829550000000     0.139920000000     0.133470000000     1.00078    
Ni10     Ni     0.826850000000     0.186860000000     0.140120000000     1.00617    
Ni11     Ni     0.495960000000     0.471510000000     0.466730000000     1.0057     
Ni12     Ni     0.493500000000     0.518580000000     0.473380000000     1.00188    
Ni13     Ni     0.185890000000     0.355150000000     0.799710000000     1.00139    
Ni14     Ni     0.139470000000     0.305140000000     0.806990000000     1.00383    
Ni15     Ni     0.354280000000     0.186710000000     0.640970000000     1.00187    
Ni16     Ni     0.304200000000     0.140490000000     0.632700000000     1.00463    
Ni17     Ni     0.018760000000     0.517960000000     0.974240000000     1.00084    
Ni18     Ni     0.969220000000     0.470900000000     0.967560000000     1.00557    
Ni19     Ni     0.686390000000     0.852710000000     0.306860000000     0.999732   
Ni20     Ni     0.636870000000     0.805640000000     0.300220000000     1.00629    
Ni21     Ni     0.851430000000     0.686560000000     0.134170000000     1.00094    
Ni22     Ni     0.804220000000     0.637170000000     0.140860000000     1.00525    
Ni23     Ni     0.517970000000     0.020490000000     0.466870000000     1.00014    
Ni24     Ni     0.470950000000     0.970920000000     0.473490000000     1.00603    
Ni25     Ni     0.303380000000     0.161170000000     0.133990000000     1.00059    
Ni26     Ni     0.352700000000     0.163040000000     0.139690000000     1.00523    
Ni27     Ni     0.471390000000     0.496630000000     0.973340000000     1.00176    
Ni28     Ni     0.518600000000     0.494390000000     0.966680000000     1.00515    
Ni29     Ni     0.137030000000     0.830170000000     0.307430000000     1.00016    
Ni30     Ni     0.184330000000     0.828010000000     0.301760000000     1.00545    
Ni31     Ni     0.968790000000     0.494310000000     0.467350000000     1.00051    
Ni32     Ni     0.018250000000     0.496570000000     0.474080000000     1.00601    
Ni33     Ni     0.803120000000     0.163400000000     0.640300000000     0.999577   
Ni34     Ni     0.850300000000     0.161100000000     0.633710000000     1.00722    
Ni35     Ni     0.635900000000     0.827390000000     0.800050000000     0.999906   
Ni36     Ni     0.685500000000     0.829960000000     0.806740000000     1.00648    
O1       O      0.839250000000     0.640750000000     0.578110000000    -0.450037   
O2       O      0.814410000000     0.635690000000     0.703090000000    -0.449696   
O3       O      0.783860000000     0.617480000000     0.621620000000    -0.452014   
O4       O      0.870080000000     0.659000000000     0.659460000000    -0.450634   
O5       O      0.872990000000     0.705430000000     0.650740000000    -0.449564   
O6       O      0.785500000000     0.663580000000     0.618030000000    -0.448244   
O7       O      0.818380000000     0.682750000000     0.697290000000    -0.450726   
O8       O      0.840340000000     0.686450000000     0.571400000000    -0.450501   
O9       O      0.151770000000     0.797360000000     0.863690000000    -0.449154   
O10      O      0.174060000000     0.817310000000     0.738000000000    -0.450859   
O11      O      0.206380000000     0.830380000000     0.817410000000    -0.450831   
O12      O      0.119290000000     0.784210000000     0.783510000000    -0.449711   
O13      O      0.115900000000     0.827500000000     0.791630000000    -0.450682   
O14      O      0.203020000000     0.873690000000     0.825540000000    -0.449503   
O15      O      0.170510000000     0.860550000000     0.745410000000    -0.449523   
O16      O      0.148240000000     0.840620000000     0.871020000000    -0.451117   
O17      O      0.504160000000     0.974860000000     0.910610000000    -0.450591   
O18      O      0.482200000000     0.971150000000     0.036530000000    -0.450314   
O19      O      0.449560000000     0.952200000000     0.957200000000    -0.449014   
O20      O      0.537090000000     0.994030000000     0.989880000000    -0.44736    
O21      O      0.538730000000     0.040140000000     0.986230000000    -0.451872   
O22      O      0.452490000000     0.998650000000     0.948580000000    -0.450638   
O23      O      0.483370000000     0.016890000000     0.029830000000    -0.450579   
O24      O      0.508080000000     0.021890000000     0.904820000000    -0.450316   
O25      O      0.148290000000     0.304410000000     0.369330000000    -0.450579   
O26      O      0.171660000000     0.308320000000     0.243870000000    -0.44895    
O27      O      0.203440000000     0.326930000000     0.324570000000    -0.449611   
O28      O      0.116580000000     0.285840000000     0.289350000000    -0.450627   
O29      O      0.119570000000     0.332400000000     0.282050000000    -0.449216   
O30      O      0.206460000000     0.373500000000     0.317260000000    -0.450397   
O31      O      0.174760000000     0.354960000000     0.237300000000    -0.450568   
O32      O      0.151420000000     0.351060000000     0.362760000000    -0.448976   
O33      O      0.840440000000     0.150610000000     0.070700000000    -0.450213   
O34      O      0.818610000000     0.132370000000     0.196690000000    -0.450409   
O35      O      0.785640000000     0.118570000000     0.117470000000    -0.448092   
O36      O      0.873180000000     0.164350000000     0.149970000000    -0.449325   
O37      O      0.870140000000     0.207800000000     0.158610000000    -0.450577   
O38      O      0.783860000000     0.162960000000     0.121050000000    -0.451924   
O39      O      0.814560000000     0.175420000000     0.202410000000    -0.450096   
O40      O      0.839160000000     0.195120000000     0.077390000000    -0.450486   
O41      O      0.483580000000     0.463270000000     0.529450000000    -0.450352   
O42      O      0.508360000000     0.482960000000     0.404460000000    -0.449792   
O43      O      0.538950000000     0.495250000000     0.485890000000    -0.451919   
O44      O      0.452700000000     0.450760000000     0.448160000000    -0.450895   
O45      O      0.449860000000     0.494310000000     0.456890000000    -0.449489   
O46      O      0.537390000000     0.539760000000     0.489370000000    -0.448287   
O47      O      0.504430000000     0.526080000000     0.410180000000    -0.450806   
O48      O      0.482590000000     0.507930000000     0.536140000000    -0.450431   
O49      O      0.174550000000     0.355410000000     0.737320000000    -0.450207   
O50      O      0.194110000000     0.351660000000     0.862860000000    -0.448688   
O51      O      0.207530000000     0.333240000000     0.782140000000    -0.44913    
O52      O      0.161200000000     0.373780000000     0.817300000000    -0.45013    
O53      O      0.117850000000     0.327050000000     0.824620000000    -0.449398   
O54      O      0.164150000000     0.286530000000     0.789360000000    -0.45068    
O55      O      0.150800000000     0.304840000000     0.869330000000    -0.451046   
O56      O      0.131200000000     0.308630000000     0.743920000000    -0.449388   
O57      O      0.353740000000     0.175150000000     0.703450000000    -0.450231   
O58      O      0.351600000000     0.195130000000     0.577650000000    -0.448585   
O59      O      0.332360000000     0.208480000000     0.657760000000    -0.449277   
O60      O      0.372920000000     0.161930000000     0.624100000000    -0.450544   
O61      O      0.326160000000     0.118750000000     0.615870000000    -0.449444   
O62      O      0.285580000000     0.165300000000     0.649600000000    -0.450593   
O63      O      0.304690000000     0.152010000000     0.570330000000    -0.451653   
O64      O      0.306860000000     0.132020000000     0.695910000000    -0.449823   
O65      O      0.019040000000     0.507290000000     0.037010000000    -0.450517   
O66      O      0.015300000000     0.525480000000     0.911020000000    -0.450729   
O67      O      0.996070000000     0.539150000000     0.990230000000    -0.447784   
O68      O      0.038120000000     0.493700000000     0.957730000000    -0.449328   
O69      O      0.991740000000     0.450120000000     0.949060000000    -0.450065   
O70      O      0.949980000000     0.494660000000     0.986660000000    -0.45166    
O71      O      0.968280000000     0.482320000000     0.905290000000    -0.450133   
O72      O      0.973350000000     0.462670000000     0.030300000000    -0.450393   
O73      O      0.686700000000     0.842030000000     0.369660000000    -0.449546   
O74      O      0.682890000000     0.860220000000     0.243630000000    -0.450058   
O75      O      0.663670000000     0.873880000000     0.322920000000    -0.447665   
O76      O      0.705790000000     0.828490000000     0.290280000000    -0.44898    
O77      O      0.659400000000     0.784910000000     0.281620000000    -0.450505   
O78      O      0.617600000000     0.829370000000     0.319410000000    -0.451516   
O79      O      0.635870000000     0.817070000000     0.237990000000    -0.450468   
O80      O      0.641040000000     0.797380000000     0.362890000000    -0.450811   
O81      O      0.858930000000     0.683070000000     0.197390000000    -0.450357   
O82      O      0.840780000000     0.686870000000     0.071390000000    -0.450078   
O83      O      0.827330000000     0.706110000000     0.150690000000    -0.449059   
O84      O      0.872460000000     0.663710000000     0.118180000000    -0.447937   
O85      O      0.827820000000     0.617760000000     0.121700000000    -0.451418   
O86      O      0.783630000000     0.659840000000     0.159430000000    -0.45039    
O87      O      0.795990000000     0.641350000000     0.078140000000    -0.45031    
O88      O      0.815660000000     0.636140000000     0.203110000000    -0.449911   
O89      O      0.525520000000     0.017020000000     0.530060000000    -0.450781   
O90      O      0.507260000000     0.020810000000     0.404130000000    -0.450546   
O91      O      0.493600000000     0.039730000000     0.483500000000    -0.44904    
O92      O      0.539250000000     0.997880000000     0.450750000000    -0.447488   
O93      O      0.494790000000     0.951780000000     0.454330000000    -0.451779   
O94      O      0.450070000000     0.993300000000     0.492080000000    -0.450283   
O95      O      0.462670000000     0.975090000000     0.410780000000    -0.4504     
O96      O      0.482390000000     0.969990000000     0.535770000000    -0.450076   
O97      O      0.302310000000     0.149770000000     0.071230000000    -0.44955    
O98      O      0.307670000000     0.172620000000     0.197100000000    -0.449934   
O99      O      0.326280000000     0.204890000000     0.117380000000    -0.448413   
O100     O      0.283760000000     0.117640000000     0.151050000000    -0.449279   
O101     O      0.329990000000     0.119930000000     0.158920000000    -0.450297   
O102     O      0.372150000000     0.205930000000     0.119950000000    -0.451373   
O103     O      0.354520000000     0.175950000000     0.201850000000    -0.450002   
O104     O      0.347740000000     0.150180000000     0.077150000000    -0.450452   
O105     O      0.482020000000     0.507530000000     0.036120000000    -0.450362   
O106     O      0.463920000000     0.485710000000     0.910130000000    -0.450754   
O107     O      0.450360000000     0.452770000000     0.989290000000    -0.448402   
O108     O      0.495490000000     0.540260000000     0.956860000000    -0.449225   
O109     O      0.539200000000     0.537650000000     0.948160000000    -0.450475   
O110     O      0.494990000000     0.451390000000     0.985760000000    -0.451528   
O111     O      0.507190000000     0.482010000000     0.904420000000    -0.450006   
O112     O      0.526800000000     0.506730000000     0.029420000000    -0.450186   
O113     O      0.147410000000     0.841540000000     0.370190000000    -0.449613   
O114     O      0.129830000000     0.818770000000     0.244310000000    -0.449982   
O115     O      0.116010000000     0.786420000000     0.324020000000    -0.448127   
O116     O      0.161140000000     0.873700000000     0.290380000000    -0.449099   
O117     O      0.204920000000     0.871130000000     0.282540000000    -0.450399   
O118     O      0.160720000000     0.785140000000     0.321490000000    -0.451399   
O119     O      0.173190000000     0.815160000000     0.239580000000    -0.449946   
O120     O      0.192300000000     0.840880000000     0.364300000000    -0.450426   
O121     O      0.968520000000     0.483380000000     0.404550000000    -0.450007   
O122     O      0.972230000000     0.505210000000     0.530620000000    -0.450149   
O123     O      0.991620000000     0.538190000000     0.451420000000    -0.447765   
O124     O      0.949280000000     0.450690000000     0.483830000000    -0.449146   
O125     O      0.995610000000     0.453320000000     0.492600000000    -0.450447   
O126     O      0.037630000000     0.539580000000     0.455000000000    -0.451469   
O127     O      0.019210000000     0.508920000000     0.536320000000    -0.450698   
O128     O      0.014110000000     0.484210000000     0.411400000000    -0.451174   
O129     O      0.795650000000     0.152420000000     0.577060000000    -0.449957   
O130     O      0.813790000000     0.174410000000     0.703080000000    -0.449759   
O131     O      0.827260000000     0.207000000000     0.623690000000    -0.449154   
O132     O      0.782050000000     0.119530000000     0.656380000000    -0.447791   
O133     O      0.826670000000     0.118140000000     0.652940000000    -0.45209    
O134     O      0.870930000000     0.204320000000     0.615050000000    -0.450938   
O135     O      0.858550000000     0.173570000000     0.696350000000    -0.450948   
O136     O      0.838900000000     0.148680000000     0.571480000000    -0.450649   
O137     O      0.639350000000     0.838370000000     0.863290000000    -0.450056   
O138     O      0.635650000000     0.816450000000     0.737270000000    -0.44974    
O139     O      0.616610000000     0.783800000000     0.816640000000    -0.449126   
O140     O      0.658510000000     0.871260000000     0.784000000000    -0.447829   
O141     O      0.704650000000     0.872920000000     0.787550000000    -0.451755   
O142     O      0.663070000000     0.786710000000     0.825350000000    -0.450482   
O143     O      0.681380000000     0.817560000000     0.744070000000    -0.45085    
O144     O      0.686440000000     0.842340000000     0.868960000000    -0.450349   


