data_structure

_audit_creation_method RASPA-1.0
_audit_creation_date 2023-5-23
_audit_author_name 'Poobodin Mano'

_cell_length_a    44.8072
_cell_length_b    44.8169
_cell_length_c    29.96
_cell_angle_alpha 90
_cell_angle_beta  90
_cell_angle_gamma 90
_cell_volume      60163.3

_symmetry_cell_setting          triclinic
_symmetry_space_group_name_Hall 'P 1'
_symmetry_space_group_name_H-M  'P 1'
_symmetry_Int_Tables_number     1

_symmetry_equiv_pos_as_xyz 'x,y,z'

loop_
_atom_site_label
_atom_site_type_symbol
_atom_site_fract_x
_atom_site_fract_y
_atom_site_fract_z
_atom_site_charge
C1       C      0.494950000000     0.827850000000     0.068070000000     0.434832   
C2       C      0.495020000000     0.827000000000     0.897400000000     0.435017   
C3       C      0.438050000000     0.829660000000     0.982950000000     0.434343   
C4       C      0.552130000000     0.825210000000     0.982680000000     0.434567   
C5       C      0.491340000000     0.827740000000     0.397440000000     0.43502    
C6       C      0.492120000000     0.827150000000     0.568090000000     0.434965   
C7       C      0.548660000000     0.828930000000     0.482020000000     0.434906   
C8       C      0.434580000000     0.825990000000     0.483600000000     0.434913   
C9       C      0.828540000000     0.490300000000     0.086100000000     0.434544   
C10      C      0.827980000000     0.490320000000     0.915430000000     0.43433    
C11      C      0.828580000000     0.547180000000     0.000630000000     0.434861   
C12      C      0.827940000000     0.433110000000     0.000880000000     0.434596   
C13      C      0.828410000000     0.495400000000     0.415460000000     0.434598   
C14      C      0.827840000000     0.496440000000     0.586130000000     0.43425    
C15      C      0.829050000000     0.439050000000     0.501640000000     0.434606   
C16      C      0.827190000000     0.553110000000     0.499680000000     0.43441    
C17      C      0.494660000000     0.161750000000     0.092700000000     0.43455    
C18      C      0.494260000000     0.161330000000     0.922040000000     0.434647   
C19      C      0.551400000000     0.160650000000     0.007010000000     0.434342   
C20      C      0.437280000000     0.162450000000     0.007580000000     0.434262   
C21      C      0.498830000000     0.161720000000     0.421990000000     0.434298   
C22      C      0.498180000000     0.161300000000     0.592640000000     0.434657   
C23      C      0.441580000000     0.160620000000     0.506600000000     0.434433   
C24      C      0.555680000000     0.162380000000     0.507730000000     0.434289   
C25      C      0.162080000000     0.497750000000     0.069100000000     0.434998   
C26      C      0.163050000000     0.497830000000     0.898420000000     0.434837   
C27      C      0.161060000000     0.440880000000     0.983640000000     0.434383   
C28      C      0.164040000000     0.555000000000     0.983840000000     0.434351   
C29      C      0.163240000000     0.492870000000     0.569120000000     0.435033   
C30      C      0.161950000000     0.494080000000     0.398460000000     0.434833   
C31      C      0.164570000000     0.436300000000     0.482940000000     0.434516   
C32      C      0.160580000000     0.550360000000     0.484910000000     0.434512   
C33      C      0.770960000000     0.822170000000     0.990400000000     0.434368   
C34      C      0.885030000000     0.823600000000     0.997110000000     0.434555   
C35      C      0.828640000000     0.765960000000     0.995520000000     0.434956   
C36      C      0.827260000000     0.880010000000     0.992150000000     0.434838   
C37      C      0.767470000000     0.829650000000     0.487710000000     0.43486    
C38      C      0.881500000000     0.828820000000     0.493520000000     0.435376   
C39      C      0.824140000000     0.772020000000     0.491940000000     0.434664   
C40      C      0.824960000000     0.886110000000     0.489530000000     0.435048   
C41      C      0.770240000000     0.157220000000     0.997700000000     0.434719   
C42      C      0.884310000000     0.157260000000     0.991380000000     0.434902   
C43      C      0.827260000000     0.214230000000     0.996620000000     0.434744   
C44      C      0.827360000000     0.100160000000     0.992410000000     0.435029   
C45      C      0.832060000000     0.220200000000     0.496060000000     0.434928   
C46      C      0.830930000000     0.106160000000     0.491100000000     0.43509    
C47      C      0.774540000000     0.163680000000     0.497550000000     0.434535   
C48      C      0.888570000000     0.162500000000     0.489660000000     0.434825   
C49      C      0.160510000000     0.222060000000     0.991680000000     0.434716   
C50      C      0.162090000000     0.108030000000     0.998460000000     0.434862   
C51      C      0.218390000000     0.165690000000     0.998490000000     0.434348   
C52      C      0.104340000000     0.164270000000     0.991900000000     0.435001   
C53      C      0.167070000000     0.217480000000     0.488950000000     0.434503   
C54      C      0.164600000000     0.103390000000     0.493680000000     0.434657   
C55      C      0.222790000000     0.159350000000     0.494960000000     0.434682   
C56      C      0.108760000000     0.161740000000     0.488080000000     0.434707   
C57      C      0.219270000000     0.832490000000     0.992620000000     0.4345     
C58      C      0.105200000000     0.829480000000     0.998250000000     0.434582   
C59      C      0.163830000000     0.773880000000     0.992120000000     0.434124   
C60      C      0.160750000000     0.887910000000     0.998770000000     0.434597   
C61      C      0.157900000000     0.769130000000     0.492010000000     0.434457   
C62      C      0.159340000000     0.883220000000     0.494860000000     0.434278   
C63      C      0.215700000000     0.825360000000     0.491580000000     0.434379   
C64      C      0.101650000000     0.826730000000     0.495230000000     0.434912   
C65      C      0.153420000000     0.960750000000     0.457230000000    -0.086387   
C66      C      0.161100000000     0.976630000000     0.495960000000     0.0346594  
C67      C      0.167760000000     0.960180000000     0.534590000000    -0.0860625  
C68      C      0.166560000000     0.929000000000     0.533880000000     0.0720711  
C69      C      0.153270000000     0.929610000000     0.457380000000     0.0725083  
C70      C      0.162330000000     0.010000000000     0.495790000000     0.0347535  
C71      C      0.169500000000     0.025670000000     0.456680000000    -0.0865591  
C72      C      0.169820000000     0.056800000000     0.456550000000     0.0726023  
C73      C      0.157680000000     0.057820000000     0.533460000000     0.0722107  
C74      C      0.156320000000     0.026650000000     0.534490000000    -0.0860474  
C75      C      0.155110000000     0.031310000000     0.039970000000    -0.0860195  
C76      C      0.161650000000     0.014650000000     0.001470000000     0.0348335  
C77      C      0.169110000000     0.030330000000     0.962470000000    -0.0867922  
C78      C      0.168900000000     0.061420000000     0.962090000000     0.0728551  
C79      C      0.156000000000     0.062510000000     0.038730000000     0.0722124  
C80      C      0.160580000000     0.981280000000     0.001540000000     0.0347883  
C81      C      0.166830000000     0.964710000000     0.040230000000    -0.0859933  
C82      C      0.166100000000     0.933500000000     0.039070000000     0.0721637  
C83      C      0.153850000000     0.934420000000     0.962180000000     0.0727756  
C84      C      0.153490000000     0.965520000000     0.962460000000    -0.0866564  
C85      C      0.966340000000     0.155070000000     0.525130000000    -0.0866754  
C86      C      0.981960000000     0.161990000000     0.485860000000     0.0347625  
C87      C      0.965230000000     0.168350000000     0.447350000000    -0.0859885  
C88      C      0.934010000000     0.167820000000     0.448870000000     0.0721008  
C89      C      0.935250000000     0.155650000000     0.525770000000     0.0728931  
C90      C      0.015360000000     0.162730000000     0.485570000000     0.0347727  
C91      C      0.031260000000     0.169920000000     0.524470000000    -0.086751   
C92      C      0.062350000000     0.169220000000     0.524660000000     0.0729022  
C93      C      0.063050000000     0.156470000000     0.447960000000     0.0720786  
C94      C      0.031810000000     0.156040000000     0.446920000000    -0.0859055  
C95      C      0.962060000000     0.152140000000     0.027890000000    -0.0866927  
C96      C      0.977660000000     0.159530000000     0.988800000000     0.0347924  
C97      C      0.960970000000     0.165260000000     0.950050000000    -0.0860421  
C98      C      0.929780000000     0.163710000000     0.951150000000     0.07218    
C99      C      0.930950000000     0.151700000000     0.028110000000     0.0729848  
C100     C      0.011000000000     0.161430000000     0.988900000000     0.0347401  
C101     C      0.026470000000     0.169350000000     0.027870000000    -0.0866263  
C102     C      0.057570000000     0.169930000000     0.028260000000     0.072904   
C103     C      0.058990000000     0.156920000000     0.951670000000     0.0721323  
C104     C      0.027820000000     0.155240000000     0.950440000000    -0.0859741  
C105     C      0.958240000000     0.822290000000     0.534990000000    -0.0861009  
C106     C      0.974880000000     0.828280000000     0.496270000000     0.0348357  
C107     C      0.959170000000     0.834970000000     0.456980000000    -0.0866496  
C108     C      0.928070000000     0.834660000000     0.456640000000     0.0728945  
C109     C      0.927050000000     0.823140000000     0.533780000000     0.0723208  
C110     C      0.008260000000     0.827460000000     0.496500000000     0.0347708  
C111     C      0.024650000000     0.834090000000     0.535220000000    -0.0860828  
C112     C      0.055840000000     0.833210000000     0.534490000000     0.0722831  
C113     C      0.055340000000     0.820430000000     0.457780000000     0.0727604  
C114     C      0.024220000000     0.820150000000     0.457680000000    -0.0865511  
C115     C      0.820340000000     0.963560000000     0.527760000000    -0.0865403  
C116     C      0.827140000000     0.979470000000     0.488670000000     0.0348141  
C117     C      0.832700000000     0.963040000000     0.449620000000    -0.086262   
C118     C      0.831290000000     0.931900000000     0.450270000000     0.0724804  
C119     C      0.820050000000     0.932440000000     0.527520000000     0.0727909  
C120     C      0.828540000000     0.012820000000     0.488860000000     0.0348143  
C121     C      0.836380000000     0.028440000000     0.527740000000    -0.0865937  
C122     C      0.836750000000     0.059560000000     0.527930000000     0.0728315  
C123     C      0.823550000000     0.060680000000     0.451400000000     0.072393   
C124     C      0.822030000000     0.029520000000     0.450380000000    -0.0861627  
C125     C      0.962890000000     0.817830000000     0.961210000000    -0.0866831  
C126     C      0.978430000000     0.825410000000     0.000280000000     0.0347826  
C127     C      0.961640000000     0.831660000000     0.038760000000    -0.0859325  
C128     C      0.930440000000     0.830360000000     0.037450000000     0.0721413  
C129     C      0.931780000000     0.817630000000     0.960760000000     0.0727065  
C130     C      0.011800000000     0.827000000000     0.000420000000     0.0347965  
C131     C      0.027490000000     0.834400000000     0.961410000000    -0.0867097  
C132     C      0.058600000000     0.834780000000     0.961290000000     0.0728283  
C133     C      0.059640000000     0.822510000000     0.038160000000     0.0720478  
C134     C      0.028440000000     0.821040000000     0.039150000000    -0.0859299  
C135     C      0.833920000000     0.957040000000     0.952080000000    -0.0861816  
C136     C      0.826780000000     0.973400000000     0.990600000000     0.0347013  
C137     C      0.819350000000     0.957430000000     0.029360000000    -0.0864386  
C138     C      0.819960000000     0.926300000000     0.029360000000     0.0726206  
C139     C      0.833450000000     0.925860000000     0.952930000000     0.0722984  
C140     C      0.827230000000     0.006770000000     0.990650000000     0.0347365  
C141     C      0.821010000000     0.023210000000     0.951820000000    -0.0861358  
C142     C      0.821660000000     0.054400000000     0.952740000000     0.0722925  
C143     C      0.833480000000     0.053780000000     0.029790000000     0.0727389  
C144     C      0.833890000000     0.022660000000     0.029770000000    -0.0865322  
C145     C      0.184850000000     0.628370000000     0.481030000000    -0.0880386  
C146     C      0.157940000000     0.643310000000     0.488150000000     0.0348753  
C147     C      0.131840000000     0.626740000000     0.494060000000    -0.0877694  
C148     C      0.133010000000     0.595600000000     0.492280000000     0.0722755  
C149     C      0.185350000000     0.597240000000     0.480430000000     0.0724865  
C150     C      0.157220000000     0.676150000000     0.489120000000     0.0348745  
C151     C      0.152490000000     0.691360000000     0.529170000000    -0.0878232  
C152     C      0.153010000000     0.722530000000     0.529660000000     0.0722099  
C153     C      0.161670000000     0.723580000000     0.451530000000     0.0724096  
C154     C      0.161940000000     0.692450000000     0.450050000000    -0.0880383  
C155     C      0.172590000000     0.293990000000     0.446260000000    -0.087733   
C156     C      0.168070000000     0.310470000000     0.485220000000     0.0348339  
C157     C      0.163530000000     0.295440000000     0.525450000000    -0.0879892  
C158     C      0.163720000000     0.264290000000     0.526200000000     0.0723043  
C159     C      0.172030000000     0.262830000000     0.448000000000     0.0721556  
C160     C      0.167270000000     0.343310000000     0.483860000000     0.0348548  
C161     C      0.140270000000     0.358360000000     0.489410000000    -0.0880343  
C162     C      0.139740000000     0.389490000000     0.488370000000     0.0724584  
C163     C      0.192190000000     0.390940000000     0.477660000000     0.0721611  
C164     C      0.193410000000     0.359760000000     0.477590000000    -0.087671   
C165     C      0.171010000000     0.695810000000     0.027100000000    -0.0876444  
C166     C      0.166040000000     0.680910000000     0.986850000000     0.034713   
C167     C      0.160580000000     0.697560000000     0.948300000000    -0.0877274  
C168     C      0.160390000000     0.728700000000     0.950490000000     0.0722143  
C169     C      0.169960000000     0.726960000000     0.028350000000     0.0721798  
C170     C      0.165760000000     0.648040000000     0.985370000000     0.0348659  
C171     C      0.191910000000     0.631750000000     0.992550000000    -0.0876925  
C172     C      0.191070000000     0.600570000000     0.991190000000     0.072158   
C173     C      0.138960000000     0.601620000000     0.977240000000     0.0724307  
C174     C      0.139150000000     0.632770000000     0.977300000000    -0.0879213  
C175     C      0.154230000000     0.300180000000     0.026710000000    -0.0878285  
C176     C      0.158940000000     0.315020000000     0.986350000000     0.0347594  
C177     C      0.164000000000     0.298340000000     0.947720000000    -0.0877654  
C178     C      0.164050000000     0.267200000000     0.949940000000     0.0722331  
C179     C      0.155100000000     0.269040000000     0.027960000000     0.0723563  
C180     C      0.159260000000     0.347870000000     0.984830000000     0.0349064  
C181     C      0.186010000000     0.363110000000     0.977760000000    -0.0880258  
C182     C      0.186220000000     0.394260000000     0.977770000000     0.072455   
C183     C      0.133900000000     0.395320000000     0.989890000000     0.0721994  
C184     C      0.133020000000     0.364150000000     0.991110000000    -0.0877604  
C185     C      0.137770000000     0.487020000000     0.684960000000    -0.0865397  
C186     C      0.163670000000     0.494570000000     0.708810000000     0.0346985  
C187     C      0.189580000000     0.501090000000     0.684260000000    -0.0862972  
C188     C      0.189220000000     0.499750000000     0.637680000000     0.0723865  
C189     C      0.137970000000     0.486850000000     0.638370000000     0.0726154  
C190     C      0.163600000000     0.495690000000     0.758750000000     0.0347407  
C191     C      0.137420000000     0.502350000000     0.782510000000    -0.0864173  
C192     C      0.137560000000     0.502620000000     0.829110000000     0.072583   
C193     C      0.189220000000     0.491500000000     0.829940000000     0.0724903  
C194     C      0.189680000000     0.490090000000     0.783370000000    -0.0863806  
C195     C      0.187530000000     0.489620000000     0.184630000000    -0.0864726  
C196     C      0.161530000000     0.496320000000     0.208810000000     0.0346563  
C197     C      0.135670000000     0.503480000000     0.184590000000    -0.0862822  
C198     C      0.136130000000     0.503460000000     0.137950000000     0.0722975  
C199     C      0.187420000000     0.490690000000     0.138070000000     0.0724477  
C200     C      0.161480000000     0.495880000000     0.258760000000     0.0347078  
C201     C      0.135470000000     0.489100000000     0.282890000000    -0.0862262  
C202     C      0.135880000000     0.489050000000     0.329550000000     0.0722989  
C203     C      0.187360000000     0.501050000000     0.329550000000     0.0724996  
C204     C      0.187540000000     0.502190000000     0.283000000000    -0.0865639  
C205     C      0.301090000000     0.154120000000     0.460380000000    -0.0878852  
C206     C      0.315740000000     0.159060000000     0.500840000000     0.0349626  
C207     C      0.298880000000     0.163880000000     0.539360000000    -0.0879243  
C208     C      0.267750000000     0.163430000000     0.536930000000     0.0724225  
C209     C      0.269930000000     0.154530000000     0.458910000000     0.0723475  
C210     C      0.348590000000     0.159390000000     0.502800000000     0.034843   
C211     C      0.363850000000     0.185800000000     0.512290000000    -0.0877723  
C212     C      0.395010000000     0.185890000000     0.513090000000     0.0723031  
C213     C      0.395990000000     0.134030000000     0.497090000000     0.0722792  
C214     C      0.364860000000     0.133340000000     0.494960000000    -0.0877845  
C215     C      0.696200000000     0.169080000000     0.463330000000    -0.0878353  
C216     C      0.681570000000     0.163840000000     0.503720000000     0.0348266  
C217     C      0.698490000000     0.158670000000     0.542110000000    -0.087736   
C218     C      0.729630000000     0.159130000000     0.539610000000     0.0722908  
C219     C      0.727340000000     0.168660000000     0.461770000000     0.0723495  
C220     C      0.648710000000     0.163580000000     0.505660000000     0.0349024  
C221     C      0.632510000000     0.189680000000     0.497860000000    -0.0878799  
C222     C      0.601360000000     0.189000000000     0.499470000000     0.0722961  
C223     C      0.602190000000     0.137080000000     0.514940000000     0.0723274  
C224     C      0.633370000000     0.137140000000     0.514670000000    -0.0877508  
C225     C      0.359650000000     0.137520000000     0.997840000000    -0.0878552  
C226     C      0.344250000000     0.164100000000     0.005620000000     0.0349052  
C227     C      0.360400000000     0.190070000000     0.014530000000    -0.0877873  
C228     C      0.391560000000     0.189180000000     0.014740000000     0.0723086  
C229     C      0.390800000000     0.137250000000     0.999370000000     0.0722931  
C230     C      0.311380000000     0.164790000000     0.003830000000     0.0349379  
C231     C      0.294680000000     0.170200000000     0.042340000000    -0.087761   
C232     C      0.263520000000     0.170190000000     0.040080000000     0.0722543  
C233     C      0.265410000000     0.160800000000     0.962180000000     0.0723434  
C234     C      0.296550000000     0.159940000000     0.963490000000    -0.0879796  
C235     C      0.628980000000     0.185590000000     0.996500000000    -0.0879008  
C236     C      0.644410000000     0.159070000000     0.004580000000     0.034936   
C237     C      0.628310000000     0.133130000000     0.013850000000    -0.0878003  
C238     C      0.597150000000     0.133980000000     0.014170000000     0.072327   
C239     C      0.597830000000     0.185830000000     0.998150000000     0.0722674  
C240     C      0.677270000000     0.158420000000     0.002850000000     0.0349732  
C241     C      0.693930000000     0.153160000000     0.041450000000    -0.0878334  
C242     C      0.725080000000     0.153120000000     0.039250000000     0.0724531  
C243     C      0.723280000000     0.162220000000     0.961270000000     0.072406   
C244     C      0.692140000000     0.163130000000     0.962510000000    -0.0880239  
C245     C      0.488600000000     0.187140000000     0.806290000000    -0.0862746  
C246     C      0.495610000000     0.161140000000     0.782310000000     0.0345943  
C247     C      0.501940000000     0.135150000000     0.806740000000    -0.0863275  
C248     C      0.500830000000     0.135480000000     0.853330000000     0.0722813  
C249     C      0.488600000000     0.186890000000     0.852910000000     0.0722457  
C250     C      0.496380000000     0.161150000000     0.732360000000     0.034623   
C251     C      0.503430000000     0.187150000000     0.708410000000    -0.0863471  
C252     C      0.503540000000     0.186890000000     0.661800000000     0.0723205  
C253     C      0.491310000000     0.135480000000     0.661320000000     0.0722812  
C254     C      0.490090000000     0.135160000000     0.707900000000    -0.086296   
C255     C      0.490810000000     0.187820000000     0.306700000000    -0.0863922  
C256     C      0.497370000000     0.161890000000     0.282290000000     0.0346389  
C257     C      0.504670000000     0.135960000000     0.306220000000    -0.0864067  
C258     C      0.504760000000     0.136220000000     0.352830000000     0.0722765  
C259     C      0.491920000000     0.187490000000     0.353280000000     0.0722317  
C260     C      0.496550000000     0.161880000000     0.232380000000     0.0346635  
C261     C      0.503080000000     0.187810000000     0.207940000000    -0.0864043  
C262     C      0.501850000000     0.187490000000     0.161370000000     0.0722753  
C263     C      0.489010000000     0.136220000000     0.161870000000     0.0723405  
C264     C      0.489220000000     0.135950000000     0.208480000000    -0.0864235  
C265     C      0.804120000000     0.361410000000     0.492640000000    -0.0878065  
C266     C      0.830610000000     0.346040000000     0.501230000000     0.0348911  
C267     C      0.856530000000     0.362220000000     0.510390000000    -0.0877997  
C268     C      0.855680000000     0.393380000000     0.510040000000     0.0723548  
C269     C      0.803870000000     0.392560000000     0.493640000000     0.072317   
C270     C      0.831260000000     0.313180000000     0.499960000000     0.0349689  
C271     C      0.825870000000     0.298070000000     0.460020000000    -0.088022   
C272     C      0.826690000000     0.266940000000     0.459180000000     0.0724941  
C273     C      0.837070000000     0.265590000000     0.536830000000     0.0723837  
C274     C      0.837150000000     0.296750000000     0.538590000000    -0.0878005  
C275     C      0.830750000000     0.694300000000     0.455030000000    -0.0877618  
C276     C      0.824910000000     0.679000000000     0.494700000000     0.0349206  
C277     C      0.818600000000     0.695260000000     0.533310000000    -0.0878603  
C278     C      0.818690000000     0.726400000000     0.531880000000     0.0723906  
C279     C      0.829920000000     0.725470000000     0.454490000000     0.0722356  
C280     C      0.825490000000     0.646120000000     0.495890000000     0.0347971  
C281     C      0.799540000000     0.630010000000     0.505190000000    -0.0877318  
C282     C      0.800430000000     0.598860000000     0.505870000000     0.0722708  
C283     C      0.852320000000     0.599520000000     0.490080000000     0.0722454  
C284     C      0.852040000000     0.630660000000     0.488030000000    -0.0876575  
C285     C      0.853780000000     0.355710000000     0.009130000000    -0.0878221  
C286     C      0.827420000000     0.340100000000     0.000600000000     0.0350185  
C287     C      0.801210000000     0.356040000000     0.992370000000    -0.0879515  
C288     C      0.801690000000     0.387190000000     0.993230000000     0.0723539  
C289     C      0.853640000000     0.386870000000     0.008650000000     0.072421   
C290     C      0.827320000000     0.307230000000     0.999700000000     0.0348086  
C291     C      0.832730000000     0.290890000000     0.038570000000    -0.0877445  
C292     C      0.832240000000     0.259730000000     0.037110000000     0.0724471  
C293     C      0.822260000000     0.260880000000     0.959340000000     0.0723896  
C294     C      0.821860000000     0.292030000000     0.959860000000    -0.0879568  
C295     C      0.855190000000     0.624220000000     0.990890000000    -0.0879139  
C296     C      0.828990000000     0.640150000000     0.999140000000     0.0348645  
C297     C      0.802680000000     0.624570000000     0.008090000000    -0.0878573  
C298     C      0.802870000000     0.593410000000     0.008030000000     0.0724813  
C299     C      0.854760000000     0.593080000000     0.992140000000     0.0723564  
C300     C      0.829060000000     0.673000000000     0.998250000000     0.0350015  
C301     C      0.833600000000     0.688250000000     0.958190000000    -0.0880376  
C302     C      0.833090000000     0.719400000000     0.957780000000     0.0725233  
C303     C      0.824820000000     0.720390000000     0.036010000000     0.0725755  
C304     C      0.824490000000     0.689250000000     0.037400000000    -0.0879854  
C305     C      0.801770000000     0.499140000000     0.800310000000    -0.0863793  
C306     C      0.827730000000     0.493000000000     0.775740000000     0.0346398  
C307     C      0.853730000000     0.485680000000     0.799510000000    -0.0863219  
C308     C      0.853490000000     0.485160000000     0.846130000000     0.0722396  
C309     C      0.802120000000     0.497580000000     0.846870000000     0.0722283  
C310     C      0.827690000000     0.494200000000     0.725830000000     0.0346002  
C311     C      0.801770000000     0.487750000000     0.701330000000    -0.0863879  
C312     C      0.802080000000     0.489200000000     0.654760000000     0.0723221  
C313     C      0.853310000000     0.502180000000     0.655360000000     0.0721786  
C314     C      0.853590000000     0.501780000000     0.701980000000    -0.0862875  
C315     C      0.802640000000     0.500180000000     0.299600000000    -0.0863769  
C316     C      0.828680000000     0.493130000000     0.275760000000     0.0346566  
C317     C      0.854680000000     0.487020000000     0.300300000000    -0.0863468  
C318     C      0.854310000000     0.488400000000     0.346870000000     0.0723257  
C319     C      0.802860000000     0.500470000000     0.346210000000     0.0723073  
C320     C      0.828720000000     0.492160000000     0.225810000000     0.0346489  
C321     C      0.802760000000     0.484890000000     0.201890000000    -0.0864073  
C322     C      0.803020000000     0.484710000000     0.155280000000     0.0723953  
C323     C      0.854360000000     0.497270000000     0.154760000000     0.0722272  
C324     C      0.854680000000     0.498550000000     0.201350000000    -0.086319   
C325     C      0.293550000000     0.818020000000     0.527680000000    -0.0877349  
C326     C      0.308700000000     0.823960000000     0.487930000000     0.0348843  
C327     C      0.292310000000     0.830210000000     0.449420000000    -0.0879757  
C328     C      0.261180000000     0.830180000000     0.451110000000     0.0724347  
C329     C      0.262380000000     0.818880000000     0.528470000000     0.0721992  
C330     C      0.341580000000     0.824310000000     0.486760000000     0.0349492  
C331     C      0.357890000000     0.798120000000     0.493350000000    -0.0877355  
C332     C      0.389060000000     0.798950000000     0.491500000000     0.0722612  
C333     C      0.387940000000     0.851150000000     0.478340000000     0.0725797  
C334     C      0.356800000000     0.850970000000     0.478890000000    -0.0880307  
C335     C      0.625410000000     0.856880000000     0.489300000000    -0.0877488  
C336     C      0.641660000000     0.830730000000     0.482040000000     0.0348947  
C337     C      0.626380000000     0.804090000000     0.474360000000    -0.0879342  
C338     C      0.595240000000     0.803860000000     0.474790000000     0.0724726  
C339     C      0.594240000000     0.856020000000     0.488450000000     0.0723203  
C340     C      0.674510000000     0.831040000000     0.483240000000     0.0349548  
C341     C      0.691030000000     0.825670000000     0.444530000000    -0.0878726  
C342     C      0.722180000000     0.825690000000     0.446460000000     0.0723761  
C343     C      0.720650000000     0.835240000000     0.524350000000     0.0724638  
C344     C      0.689510000000     0.836080000000     0.523370000000    -0.0880442  
C345     C      0.361570000000     0.858780000000     0.979270000000    -0.0876406  
C346     C      0.345080000000     0.832720000000     0.985980000000     0.0348764  
C347     C      0.360090000000     0.805670000000     0.991270000000    -0.0880992  
C348     C      0.391200000000     0.805020000000     0.989510000000     0.0724434  
C349     C      0.392740000000     0.857450000000     0.978650000000     0.0721547  
C350     C      0.312250000000     0.833610000000     0.987830000000     0.0347945  
C351     C      0.295550000000     0.838450000000     0.949160000000    -0.0877565  
C352     C      0.264400000000     0.837860000000     0.951280000000     0.0723393  
C353     C      0.266290000000     0.829000000000     0.029320000000     0.072293   
C354     C      0.297440000000     0.828800000000     0.028180000000    -0.0879116  
C355     C      0.628510000000     0.796050000000     0.989170000000    -0.0877674  
C356     C      0.645130000000     0.822160000000     0.983790000000     0.0348629  
C357     C      0.630250000000     0.849200000000     0.977680000000    -0.0879737  
C358     C      0.599100000000     0.849830000000     0.977650000000     0.0723353  
C359     C      0.597350000000     0.797360000000     0.988080000000     0.0720949  
C360     C      0.677970000000     0.821380000000     0.985260000000     0.0347079  
C361     C      0.692780000000     0.817600000000     0.025840000000    -0.0877969  
C362     C      0.723940000000     0.818090000000     0.027000000000     0.0722245  
C363     C      0.725820000000     0.824950000000     0.948510000000     0.0721659  
C364     C      0.694670000000     0.825160000000     0.946320000000    -0.0877665  
C365     C      0.487660000000     0.800730000000     0.782090000000    -0.0862772  
C366     C      0.494020000000     0.826730000000     0.757710000000     0.0346873  
C367     C      0.500960000000     0.852730000000     0.781700000000    -0.0864589  
C368     C      0.500830000000     0.852490000000     0.828290000000     0.0725107  
C369     C      0.488610000000     0.801070000000     0.828690000000     0.072365   
C370     C      0.493410000000     0.826780000000     0.707780000000     0.0347135  
C371     C      0.500030000000     0.800890000000     0.683320000000    -0.0863824  
C372     C      0.499020000000     0.801290000000     0.636730000000     0.07233    
C373     C      0.486310000000     0.852590000000     0.637280000000     0.0724597  
C374     C      0.486220000000     0.852760000000     0.683880000000    -0.0864688  
C375     C      0.498540000000     0.801910000000     0.281960000000    -0.0865714  
C376     C      0.492720000000     0.828100000000     0.257730000000     0.0347496  
C377     C      0.486330000000     0.854180000000     0.281910000000    -0.0863164  
C378     C      0.486330000000     0.853760000000     0.328540000000     0.0724067  
C379     C      0.497400000000     0.802090000000     0.328520000000     0.0726208  
C380     C      0.493280000000     0.828150000000     0.207770000000     0.034653   
C381     C      0.486500000000     0.802240000000     0.183440000000    -0.086527   
C382     C      0.487700000000     0.802440000000     0.136900000000     0.0725296  
C383     C      0.500650000000     0.853680000000     0.137040000000     0.0723302  
C384     C      0.500620000000     0.854030000000     0.183680000000    -0.0862103  
H1       H      0.174400000000     0.971120000000     0.565220000000     0.0506778  
H2       H      0.171990000000     0.917260000000     0.564470000000     0.0262916  
H3       H      0.147300000000     0.918410000000     0.426560000000     0.0263626  
H4       H      0.147190000000     0.972140000000     0.426780000000     0.0508531  
H5       H      0.175230000000     0.014130000000     0.426140000000     0.0507561  
H6       H      0.175400000000     0.067810000000     0.425420000000     0.0262434  
H7       H      0.152790000000     0.069740000000     0.564100000000     0.0261776  
H8       H      0.150110000000     0.015860000000     0.565440000000     0.0507308  
H9       H      0.175380000000     0.018810000000     0.932150000000     0.0508     
H10      H      0.174620000000     0.072420000000     0.931000000000     0.0261202  
H11      H      0.150610000000     0.074470000000     0.069140000000     0.0261438  
H12      H      0.148760000000     0.020510000000     0.070840000000     0.0507658  
H13      H      0.172880000000     0.975580000000     0.071180000000     0.0506983  
H14      H      0.171300000000     0.921610000000     0.069620000000     0.0261247  
H15      H      0.148460000000     0.923350000000     0.931020000000     0.0261525  
H16      H      0.147430000000     0.976970000000     0.931980000000     0.0508408  
H17      H      0.975990000000     0.174280000000     0.416270000000     0.0506851  
H18      H      0.921980000000     0.173040000000     0.418450000000     0.0260818  
H19      H      0.924310000000     0.150340000000     0.557070000000     0.0261625  
H20      H      0.977890000000     0.148930000000     0.555490000000     0.0508548  
H21      H      0.019940000000     0.176340000000     0.554890000000     0.0507749  
H22      H      0.073510000000     0.174730000000     0.555710000000     0.0261454  
H23      H      0.074860000000     0.150960000000     0.417460000000     0.0260807  
H24      H      0.020820000000     0.149910000000     0.416100000000     0.0507264  
H25      H      0.971700000000     0.171510000000     0.919080000000     0.0506923  
H26      H      0.917790000000     0.168520000000     0.920550000000     0.026098   
H27      H      0.919990000000     0.146100000000     0.059280000000     0.0261371  
H28      H      0.973630000000     0.146460000000     0.058420000000     0.0509025  
H29      H      0.014790000000     0.175390000000     0.058170000000     0.0507666  
H30      H      0.068420000000     0.175980000000     0.059330000000     0.026139   
H31      H      0.071090000000     0.151780000000     0.921290000000     0.0261594  
H32      H      0.017190000000     0.148550000000     0.919590000000     0.0507165  
H33      H      0.970640000000     0.840770000000     0.426410000000     0.0508324  
H34      H      0.917030000000     0.839830000000     0.425370000000     0.0261657  
H35      H      0.915110000000     0.818260000000     0.564410000000     0.0260522  
H36      H      0.969030000000     0.816440000000     0.566090000000     0.0506236  
H37      H      0.013660000000     0.840450000000     0.565940000000     0.0506932  
H38      H      0.067570000000     0.838560000000     0.565120000000     0.0261249  
H39      H      0.066590000000     0.814760000000     0.426880000000     0.0262949  
H40      H      0.012940000000     0.813870000000     0.427170000000     0.0507888  
H41      H      0.838660000000     0.973960000000     0.418680000000     0.0507527  
H42      H      0.835860000000     0.920170000000     0.419360000000     0.0260524  
H43      H      0.814830000000     0.921200000000     0.558610000000     0.0259991  
H44      H      0.814920000000     0.974910000000     0.558580000000     0.050711   
H45      H      0.842570000000     0.016880000000     0.558060000000     0.0508227  
H46      H      0.842800000000     0.070550000000     0.558880000000     0.0260918  
H47      H      0.818230000000     0.072640000000     0.420970000000     0.026094   
H48      H      0.815270000000     0.018820000000     0.419640000000     0.0507257  
H49      H      0.972320000000     0.838110000000     0.069680000000     0.0507603  
H50      H      0.918380000000     0.835530000000     0.067860000000     0.026178   
H51      H      0.920880000000     0.811820000000     0.929620000000     0.0261845  
H52      H      0.974520000000     0.811780000000     0.930880000000     0.0507266  
H53      H      0.015980000000     0.840220000000     0.930880000000     0.0508337  
H54      H      0.069600000000     0.840480000000     0.930190000000     0.0261723  
H55      H      0.071590000000     0.817610000000     0.068770000000     0.0261266  
H56      H      0.017650000000     0.814730000000     0.070050000000     0.0506866  
H57      H      0.812760000000     0.968720000000     0.059720000000     0.0507841  
H58      H      0.814180000000     0.915030000000     0.060190000000     0.0262634  
H59      H      0.839230000000     0.914180000000     0.922430000000     0.0262209  
H60      H      0.840390000000     0.968070000000     0.921440000000     0.0507647  
H61      H      0.815160000000     0.012230000000     0.920870000000     0.0506774  
H62      H      0.816620000000     0.066150000000     0.922020000000     0.0261056  
H63      H      0.838670000000     0.064980000000     0.060920000000     0.0262199  
H64      H      0.839770000000     0.011320000000     0.060410000000     0.0508538  
H65      H      0.110660000000     0.637810000000     0.499540000000     0.0531109  
H66      H      0.112300000000     0.583470000000     0.496810000000     0.0264444  
H67      H      0.206720000000     0.586480000000     0.475040000000     0.0263998  
H68      H      0.205420000000     0.640700000000     0.476350000000     0.0530608  
H69      H      0.148870000000     0.679220000000     0.559970000000     0.0531417  
H70      H      0.149490000000     0.733580000000     0.561420000000     0.0264803  
H71      H      0.165360000000     0.735430000000     0.420470000000     0.0265709  
H72      H      0.165690000000     0.681180000000     0.418550000000     0.053149   
H73      H      0.159940000000     0.307710000000     0.556150000000     0.0531506  
H74      H      0.160140000000     0.253450000000     0.558110000000     0.0264242  
H75      H      0.175370000000     0.250770000000     0.417030000000     0.0265192  
H76      H      0.176070000000     0.305120000000     0.414580000000     0.0531236  
H77      H      0.119670000000     0.346120000000     0.494290000000     0.0532496  
H78      H      0.118300000000     0.400330000000     0.492730000000     0.0265388  
H79      H      0.212950000000     0.402990000000     0.473060000000     0.0264178  
H80      H      0.214670000000     0.348600000000     0.473280000000     0.0529667  
H81      H      0.156610000000     0.686560000000     0.916650000000     0.052997   
H82      H      0.156140000000     0.740850000000     0.919850000000     0.0265025  
H83      H      0.173680000000     0.737700000000     0.060290000000     0.0263868  
H84      H      0.175190000000     0.683440000000     0.057540000000     0.0529899  
H85      H      0.212860000000     0.643050000000     0.998860000000     0.0528512  
H86      H      0.211810000000     0.588680000000     0.996800000000     0.0263601  
H87      H      0.117800000000     0.590600000000     0.971200000000     0.0264742  
H88      H      0.118540000000     0.644850000000     0.971720000000     0.0531297  
H89      H      0.167760000000     0.309320000000     0.915990000000     0.0530484  
H90      H      0.167980000000     0.255010000000     0.919240000000     0.0264989  
H91      H      0.151560000000     0.258340000000     0.059980000000     0.0264078  
H92      H      0.150360000000     0.312590000000     0.057200000000     0.0531433  
H93      H      0.206690000000     0.351010000000     0.972900000000     0.0530721  
H94      H      0.207480000000     0.405260000000     0.972510000000     0.0264024  
H95      H      0.113090000000     0.407220000000     0.994800000000     0.0264593  
H96      H      0.111970000000     0.352850000000     0.996660000000     0.0530813  
H97      H      0.210060000000     0.507720000000     0.700600000000     0.0506773  
H98      H      0.209740000000     0.505060000000     0.620200000000     0.0261354  
H99      H      0.117370000000     0.481020000000     0.621490000000     0.0259578  
H100     H      0.117340000000     0.480910000000     0.701890000000     0.0506398  
H101     H      0.116800000000     0.507720000000     0.765510000000     0.050588   
H102     H      0.116760000000     0.507770000000     0.845940000000     0.0259453  
H103     H      0.209900000000     0.486950000000     0.847460000000     0.0260343  
H104     H      0.210400000000     0.484130000000     0.767120000000     0.0506179  
H105     H      0.115130000000     0.509530000000     0.201280000000     0.0506947  
H106     H      0.115610000000     0.509110000000     0.120720000000     0.0261845  
H107     H      0.208070000000     0.485360000000     0.120960000000     0.026185   
H108     H      0.207950000000     0.483130000000     0.201270000000     0.0506664  
H109     H      0.114860000000     0.483390000000     0.266140000000     0.0506888  
H110     H      0.115270000000     0.483680000000     0.346730000000     0.026134   
H111     H      0.208070000000     0.506050000000     0.346710000000     0.0260865  
H112     H      0.208070000000     0.508400000000     0.266430000000     0.0506261  
H113     H      0.309690000000     0.167720000000     0.571190000000     0.0530493  
H114     H      0.255430000000     0.167170000000     0.567560000000     0.0264999  
H115     H      0.259350000000     0.150840000000     0.426840000000     0.0263175  
H116     H      0.313650000000     0.150360000000     0.429990000000     0.0530323  
H117     H      0.351750000000     0.206330000000     0.518460000000     0.0529385  
H118     H      0.406070000000     0.206870000000     0.520230000000     0.0264716  
H119     H      0.407840000000     0.113350000000     0.490940000000     0.0265072  
H120     H      0.353570000000     0.112530000000     0.487600000000     0.0529774  
H121     H      0.687700000000     0.154580000000     0.573890000000     0.0529567  
H122     H      0.742000000000     0.155150000000     0.570130000000     0.026468   
H123     H      0.737860000000     0.172630000000     0.429730000000     0.0263579  
H124     H      0.683610000000     0.173100000000     0.433030000000     0.0530007  
H125     H      0.643860000000     0.210500000000     0.490840000000     0.0528987  
H126     H      0.589570000000     0.209720000000     0.493320000000     0.0264635  
H127     H      0.591060000000     0.116070000000     0.521660000000     0.0265247  
H128     H      0.645400000000     0.116560000000     0.520750000000     0.0530518  
H129     H      0.349000000000     0.211010000000     0.020600000000     0.0528781  
H130     H      0.403330000000     0.209850000000     0.021390000000     0.0264634  
H131     H      0.401950000000     0.116170000000     0.993250000000     0.0265196  
H132     H      0.347660000000     0.117040000000     0.990900000000     0.053066   
H133     H      0.305630000000     0.174010000000     0.074070000000     0.0530012  
H134     H      0.251300000000     0.174230000000     0.070720000000     0.0264479  
H135     H      0.254730000000     0.157020000000     0.930200000000     0.0263741  
H136     H      0.308970000000     0.155770000000     0.933090000000     0.053039   
H137     H      0.639740000000     0.112240000000     0.020160000000     0.0530127  
H138     H      0.585410000000     0.113340000000     0.021130000000     0.0264945  
H139     H      0.586650000000     0.206870000000     0.991820000000     0.026462   
H140     H      0.640930000000     0.206050000000     0.989290000000     0.0529172  
H141     H      0.682940000000     0.149470000000     0.073190000000     0.0530287  
H142     H      0.737260000000     0.149170000000     0.069960000000     0.0264545  
H143     H      0.734000000000     0.165860000000     0.929290000000     0.0263586  
H144     H      0.679750000000     0.167190000000     0.932050000000     0.0530274  
H145     H      0.508210000000     0.114600000000     0.790290000000     0.0506188  
H146     H      0.505920000000     0.114870000000     0.870680000000     0.0261982  
H147     H      0.483140000000     0.207540000000     0.869900000000     0.02617    
H148     H      0.482730000000     0.207670000000     0.789430000000     0.0505953  
H149     H      0.509260000000     0.207680000000     0.725280000000     0.0506433  
H150     H      0.509060000000     0.207540000000     0.644830000000     0.0262137  
H151     H      0.486270000000     0.114870000000     0.643940000000     0.0262163  
H152     H      0.483780000000     0.114610000000     0.724330000000     0.0506058  
H153     H      0.510680000000     0.115500000000     0.289290000000     0.0507367  
H154     H      0.510460000000     0.115630000000     0.369810000000     0.0262604  
H155     H      0.486620000000     0.208050000000     0.370620000000     0.0262987  
H156     H      0.484340000000     0.208300000000     0.290210000000     0.0506916  
H157     H      0.509570000000     0.208290000000     0.224410000000     0.0506991  
H158     H      0.507100000000     0.208050000000     0.143990000000     0.0262851  
H159     H      0.483260000000     0.115630000000     0.144920000000     0.0262765  
H160     H      0.483240000000     0.115490000000     0.225430000000     0.0507441  
H161     H      0.877400000000     0.350860000000     0.517070000000     0.0529539  
H162     H      0.876300000000     0.405180000000     0.516910000000     0.0264585  
H163     H      0.782860000000     0.403680000000     0.486910000000     0.0264732  
H164     H      0.783680000000     0.349400000000     0.485490000000     0.0528538  
H165     H      0.821320000000     0.310270000000     0.429550000000     0.0530137  
H166     H      0.822490000000     0.256040000000     0.427490000000     0.0263966  
H167     H      0.841480000000     0.253580000000     0.567540000000     0.0264179  
H168     H      0.841370000000     0.307920000000     0.570030000000     0.0529558  
H169     H      0.814020000000     0.683960000000     0.564550000000     0.0529411  
H170     H      0.813920000000     0.738230000000     0.562630000000     0.0265092  
H171     H      0.834470000000     0.736560000000     0.423060000000     0.0264264  
H172     H      0.835650000000     0.682240000000     0.424560000000     0.0529453  
H173     H      0.778630000000     0.641430000000     0.511400000000     0.0527871  
H174     H      0.779790000000     0.587140000000     0.512920000000     0.0264748  
H175     H      0.873380000000     0.588320000000     0.484020000000     0.0265492  
H176     H      0.872520000000     0.642600000000     0.480890000000     0.0529826  
H177     H      0.780450000000     0.344470000000     0.985690000000     0.0528945  
H178     H      0.780880000000     0.398770000000     0.986850000000     0.0264519  
H179     H      0.874580000000     0.398210000000     0.015090000000     0.0265151  
H180     H      0.874440000000     0.343880000000     0.015500000000     0.0530616  
H181     H      0.836980000000     0.302140000000     0.069940000000     0.0529881  
H182     H      0.836370000000     0.247810000000     0.067980000000     0.0264214  
H183     H      0.818100000000     0.249890000000     0.927700000000     0.0263961  
H184     H      0.817660000000     0.304160000000     0.929220000000     0.0530205  
H185     H      0.782040000000     0.636410000000     0.014540000000     0.0529704  
H186     H      0.781970000000     0.582090000000     0.014830000000     0.0264476  
H187     H      0.875560000000     0.581480000000     0.985750000000     0.0264907  
H188     H      0.875910000000     0.635780000000     0.983930000000     0.0530526  
H189     H      0.837160000000     0.676160000000     0.927330000000     0.0531073  
H190     H      0.836510000000     0.730460000000     0.926010000000     0.0263308  
H191     H      0.821310000000     0.732240000000     0.067120000000     0.0263675  
H192     H      0.820950000000     0.677940000000     0.068930000000     0.0530493  
H193     H      0.874240000000     0.479980000000     0.782450000000     0.0506683  
H194     H      0.874140000000     0.479470000000     0.862980000000     0.0262326  
H195     H      0.781520000000     0.502570000000     0.864340000000     0.0263079  
H196     H      0.781220000000     0.505590000000     0.783990000000     0.0506804  
H197     H      0.781310000000     0.481100000000     0.717720000000     0.0506953  
H198     H      0.781520000000     0.483940000000     0.637360000000     0.0263013  
H199     H      0.873880000000     0.508050000000     0.638440000000     0.0262452  
H200     H      0.874050000000     0.507740000000     0.718970000000     0.0506482  
H201     H      0.875270000000     0.480730000000     0.283950000000     0.0506533  
H202     H      0.874940000000     0.483480000000     0.364320000000     0.0262345  
H203     H      0.782180000000     0.505980000000     0.363100000000     0.0261961  
H204     H      0.782100000000     0.505880000000     0.282640000000     0.0506417  
H205     H      0.782270000000     0.478960000000     0.218800000000     0.0506587  
H206     H      0.782400000000     0.479040000000     0.138330000000     0.0261931  
H207     H      0.874950000000     0.502430000000     0.137370000000     0.0262697  
H208     H      0.875190000000     0.505000000000     0.217760000000     0.0506799  
H209     H      0.303510000000     0.834910000000     0.418140000000     0.0529805  
H210     H      0.249250000000     0.835040000000     0.420470000000     0.0265337  
H211     H      0.251390000000     0.814380000000     0.560000000000     0.0264786  
H212     H      0.305740000000     0.813220000000     0.558080000000     0.0530207  
H213     H      0.346620000000     0.777120000000     0.499410000000     0.0528623  
H214     H      0.400990000000     0.778180000000     0.496580000000     0.0263679  
H215     H      0.398930000000     0.872340000000     0.472410000000     0.0264679  
H216     H      0.344690000000     0.871610000000     0.473700000000     0.0530926  
H217     H      0.638460000000     0.783470000000     0.468750000000     0.0529559  
H218     H      0.584190000000     0.782680000000     0.469060000000     0.0264003  
H219     H      0.582370000000     0.876750000000     0.494120000000     0.0264232  
H220     H      0.636750000000     0.877850000000     0.495330000000     0.0530381  
H221     H      0.679920000000     0.821670000000     0.412970000000     0.0530358  
H222     H      0.734250000000     0.821540000000     0.415720000000     0.0264642  
H223     H      0.731490000000     0.839040000000     0.556200000000     0.0263975  
H224     H      0.677230000000     0.840180000000     0.553900000000     0.0531433  
H225     H      0.347820000000     0.785130000000     0.996450000000     0.0531229  
H226     H      0.402010000000     0.783550000000     0.993680000000     0.0264606  
H227     H      0.404830000000     0.878140000000     0.973710000000     0.0264483  
H228     H      0.350440000000     0.880070000000     0.975100000000     0.0530425  
H229     H      0.306520000000     0.842140000000     0.917400000000     0.0531402  
H230     H      0.252180000000     0.841430000000     0.920500000000     0.0265438  
H231     H      0.255610000000     0.825180000000     0.061290000000     0.0264256  
H232     H      0.309880000000     0.824970000000     0.058660000000     0.0531205  
H233     H      0.642630000000     0.869780000000     0.973530000000     0.0532837  
H234     H      0.588380000000     0.871300000000     0.973120000000     0.0265301  
H235     H      0.585180000000     0.776650000000     0.992290000000     0.0264531  
H236     H      0.639540000000     0.774780000000     0.993980000000     0.0530259  
H237     H      0.680340000000     0.814730000000     0.056560000000     0.0531763  
H238     H      0.734620000000     0.815310000000     0.059200000000     0.0264687  
H239     H      0.738020000000     0.827910000000     0.917580000000     0.0265608  
H240     H      0.683700000000     0.828190000000     0.914410000000     0.0531457  
H241     H      0.506870000000     0.873260000000     0.764860000000     0.0506039  
H242     H      0.506260000000     0.873150000000     0.845280000000     0.026067   
H243     H      0.483490000000     0.780470000000     0.846050000000     0.0261967  
H244     H      0.481480000000     0.780170000000     0.765570000000     0.0506918  
H245     H      0.506430000000     0.780370000000     0.699760000000     0.0507129  
H246     H      0.504320000000     0.780750000000     0.619320000000     0.0262332  
H247     H      0.480660000000     0.873210000000     0.620340000000     0.0261674  
H248     H      0.480140000000     0.873200000000     0.700800000000     0.0507072  
H249     H      0.480920000000     0.874890000000     0.265220000000     0.0506363  
H250     H      0.481340000000     0.874450000000     0.345730000000     0.0259969  
H251     H      0.502060000000     0.781300000000     0.345690000000     0.0259713  
H252     H      0.504410000000     0.781290000000     0.265400000000     0.0506214  
H253     H      0.479860000000     0.781820000000     0.199930000000     0.0505827  
H254     H      0.482300000000     0.781860000000     0.119680000000     0.0260163  
H255     H      0.506420000000     0.874190000000     0.119900000000     0.0260913  
H256     H      0.506760000000     0.874500000000     0.200460000000     0.0506814  
N1       N      0.159710000000     0.913830000000     0.495420000000    -0.197718   
N2       N      0.164050000000     0.072790000000     0.494650000000    -0.197817   
N3       N      0.162380000000     0.077440000000     0.999880000000    -0.197939   
N4       N      0.160160000000     0.918490000000     0.000140000000    -0.197854   
N5       N      0.919160000000     0.161980000000     0.487980000000    -0.19789    
N6       N      0.078170000000     0.162510000000     0.486760000000    -0.197889   
N7       N      0.914900000000     0.157480000000     0.990090000000    -0.19804    
N8       N      0.073750000000     0.163760000000     0.990500000000    -0.19797    
N9       N      0.912090000000     0.828870000000     0.494740000000    -0.198072   
N10      N      0.071050000000     0.826800000000     0.495910000000    -0.197986   
N11      N      0.825390000000     0.916710000000     0.489060000000    -0.197967   
N12      N      0.830460000000     0.075570000000     0.490050000000    -0.19802    
N13      N      0.915630000000     0.823840000000     0.998550000000    -0.197828   
N14      N      0.074600000000     0.828930000000     0.999340000000    -0.197873   
N15      N      0.826870000000     0.910610000000     0.991420000000    -0.197927   
N16      N      0.827510000000     0.069560000000     0.991560000000    -0.197963   
N17      N      0.159610000000     0.580950000000     0.485810000000    -0.197819   
N18      N      0.157500000000     0.738530000000     0.491100000000    -0.197838   
N19      N      0.167650000000     0.248080000000     0.487700000000    -0.197758   
N20      N      0.165530000000     0.405690000000     0.482910000000    -0.197703   
N21      N      0.164750000000     0.743300000000     0.990310000000    -0.197662   
N22      N      0.164730000000     0.585610000000     0.984020000000    -0.197721   
N23      N      0.159890000000     0.252650000000     0.989850000000    -0.197773   
N24      N      0.160360000000     0.410270000000     0.983700000000    -0.197738   
N25      N      0.163510000000     0.493060000000     0.614890000000    -0.198046   
N26      N      0.163290000000     0.497390000000     0.852660000000    -0.19804    
N27      N      0.161870000000     0.497350000000     0.114870000000    -0.198006   
N28      N      0.161700000000     0.494700000000     0.352680000000    -0.197881   
N29      N      0.253380000000     0.159050000000     0.496930000000    -0.197828   
N30      N      0.410970000000     0.160170000000     0.505690000000    -0.197736   
N31      N      0.743950000000     0.163860000000     0.499660000000    -0.197759   
N32      N      0.586300000000     0.162830000000     0.507490000000    -0.197717   
N33      N      0.406660000000     0.162950000000     0.007320000000    -0.197688   
N34      N      0.249000000000     0.165630000000     0.000250000000    -0.197634   
N35      N      0.582010000000     0.160160000000     0.006520000000    -0.197756   
N36      N      0.739650000000     0.157480000000     0.999410000000    -0.197934   
N37      N      0.494510000000     0.161220000000     0.876260000000    -0.19789    
N38      N      0.497720000000     0.161210000000     0.638420000000    -0.19786    
N39      N      0.498570000000     0.161820000000     0.376200000000    -0.197757   
N40      N      0.495120000000     0.161830000000     0.138480000000    -0.197853   
N41      N      0.829530000000     0.408440000000     0.501850000000    -0.197778   
N42      N      0.831990000000     0.250800000000     0.497370000000    -0.197874   
N43      N      0.824200000000     0.741410000000     0.492730000000    -0.197802   
N44      N      0.826660000000     0.583720000000     0.498620000000    -0.197651   
N45      N      0.827760000000     0.402500000000     0.000940000000    -0.197803   
N46      N      0.827250000000     0.244840000000     0.997720000000    -0.197829   
N47      N      0.828740000000     0.577780000000     0.000320000000    -0.197935   
N48      N      0.828880000000     0.735360000000     0.996440000000    -0.197984   
N49      N      0.827850000000     0.490930000000     0.869640000000    -0.197746   
N50      N      0.827720000000     0.496040000000     0.631910000000    -0.197808   
N51      N      0.828540000000     0.494800000000     0.369680000000    -0.197863   
N52      N      0.828650000000     0.490700000000     0.131880000000    -0.197857   
N53      N      0.246310000000     0.824810000000     0.490420000000    -0.197726   
N54      N      0.403970000000     0.825320000000     0.484400000000    -0.19785    
N55      N      0.579270000000     0.829640000000     0.481690000000    -0.197845   
N56      N      0.736880000000     0.830180000000     0.486160000000    -0.197917   
N57      N      0.407450000000     0.830740000000     0.983610000000    -0.19772    
N58      N      0.249870000000     0.833180000000     0.991070000000    -0.19777    
N59      N      0.582740000000     0.824100000000     0.982740000000    -0.197657   
N60      N      0.740360000000     0.821710000000     0.988620000000    -0.197714   
N61      N      0.494860000000     0.826830000000     0.851630000000    -0.197997   
N62      N      0.492470000000     0.827010000000     0.613870000000    -0.197947   
N63      N      0.491620000000     0.827860000000     0.351670000000    -0.198019   
N64      N      0.494480000000     0.828010000000     0.113840000000    -0.197955   
Ni1      Ni     0.496230000000     0.853950000000     0.982340000000     1.00239    
Ni2      Ni     0.493950000000     0.800920000000     0.983130000000     1.00435    
Ni3      Ni     0.490830000000     0.853980000000     0.482960000000     1.00345    
Ni4      Ni     0.492420000000     0.800930000000     0.482570000000     1.00388    
Ni5      Ni     0.854790000000     0.490000000000     0.000570000000     1.00214    
Ni6      Ni     0.801750000000     0.490300000000     0.000970000000     1.00344    
Ni7      Ni     0.854640000000     0.496500000000     0.500980000000     1.00168    
Ni8      Ni     0.801610000000     0.495650000000     0.500580000000     1.00289    
Ni9      Ni     0.493940000000     0.135030000000     0.007520000000     1.00268    
Ni10     Ni     0.494750000000     0.188060000000     0.007220000000     1.00248    
Ni11     Ni     0.499030000000     0.134990000000     0.507170000000     1.00205    
Ni12     Ni     0.498220000000     0.188010000000     0.507460000000     1.00286    
Ni13     Ni     0.136030000000     0.498730000000     0.983440000000     1.0021     
Ni14     Ni     0.189080000000     0.497130000000     0.984070000000     1.00339    
Ni15     Ni     0.136060000000     0.492300000000     0.484330000000     1.00283    
Ni16     Ni     0.189110000000     0.494370000000     0.483260000000     1.00404    
Ni17     Ni     0.829110000000     0.822470000000     0.954160000000     1.00425    
Ni18     Ni     0.826880000000     0.823490000000     0.033460000000     1.00212    
Ni19     Ni     0.825480000000     0.828740000000     0.451010000000     1.00389    
Ni20     Ni     0.823510000000     0.829430000000     0.530340000000     1.00363    
Ni21     Ni     0.828330000000     0.156460000000     0.034120000000     1.00787    
Ni22     Ni     0.826220000000     0.157930000000     0.954810000000     0.999279   
Ni23     Ni     0.830270000000     0.164040000000     0.453890000000     0.999021   
Ni24     Ni     0.832840000000     0.162300000000     0.533160000000     1.00808    
Ni25     Ni     0.160250000000     0.166160000000     0.034770000000     1.00268    
Ni26     Ni     0.162460000000     0.163930000000     0.955510000000     1.00351    
Ni27     Ni     0.164670000000     0.161280000000     0.531020000000     1.00579    
Ni28     Ni     0.166890000000     0.159590000000     0.451730000000     1.00023    
Ni29     Ni     0.163220000000     0.829830000000     0.035170000000     0.996884   
Ni30     Ni     0.161270000000     0.831980000000     0.955890000000     1.00854    
Ni31     Ni     0.158110000000     0.826590000000     0.453860000000     1.00826    
Ni32     Ni     0.159220000000     0.825750000000     0.533160000000     0.996931   
O1       O      0.496340000000     0.852540000000     0.046380000000    -0.449102   
O2       O      0.496280000000     0.851880000000     0.918530000000    -0.45069    
O3       O      0.453350000000     0.853900000000     0.982270000000    -0.448761   
O4       O      0.538790000000     0.850540000000     0.982140000000    -0.450865   
O5       O      0.536820000000     0.800980000000     0.983270000000    -0.449329   
O6       O      0.451410000000     0.804330000000     0.983330000000    -0.45117    
O7       O      0.493810000000     0.802330000000     0.919120000000    -0.449881   
O8       O      0.493800000000     0.802990000000     0.046910000000    -0.451278   
O9       O      0.490950000000     0.852490000000     0.419020000000    -0.449983   
O10      O      0.490490000000     0.851990000000     0.546870000000    -0.450106   
O11      O      0.533680000000     0.853350000000     0.483470000000    -0.44942    
O12      O      0.448250000000     0.851130000000     0.482440000000    -0.451321   
O13      O      0.449560000000     0.801560000000     0.484220000000    -0.449281   
O14      O      0.534990000000     0.803790000000     0.481000000000    -0.451346   
O15      O      0.493480000000     0.802470000000     0.546470000000    -0.450453   
O16      O      0.491690000000     0.802880000000     0.418700000000    -0.450668   
O17      O      0.853240000000     0.491580000000     0.064480000000    -0.449722   
O18      O      0.852810000000     0.488550000000     0.936670000000    -0.44949    
O19      O      0.853260000000     0.532710000000     0.998340000000    -0.450075   
O20      O      0.852790000000     0.447310000000     0.002830000000    -0.449983   
O21      O      0.803250000000     0.447590000000     0.998820000000    -0.450152   
O22      O      0.803750000000     0.532980000000     0.003080000000    -0.450317   
O23      O      0.803300000000     0.491810000000     0.937070000000    -0.449991   
O24      O      0.803700000000     0.488840000000     0.064840000000    -0.449909   
O25      O      0.853120000000     0.494480000000     0.437100000000    -0.449685   
O26      O      0.852650000000     0.498360000000     0.564850000000    -0.449336   
O27      O      0.853570000000     0.453780000000     0.503850000000    -0.449758   
O28      O      0.852190000000     0.539160000000     0.498020000000    -0.449747   
O29      O      0.802660000000     0.538400000000     0.502100000000    -0.44987    
O30      O      0.804070000000     0.452980000000     0.499040000000    -0.450147   
O31      O      0.803180000000     0.494550000000     0.564500000000    -0.449833   
O32      O      0.803560000000     0.496740000000     0.436690000000    -0.449948   
O33      O      0.492650000000     0.136970000000     0.071400000000    -0.449854   
O34      O      0.495360000000     0.136610000000     0.943620000000    -0.450001   
O35      O      0.536680000000     0.136120000000     0.009470000000    -0.449763   
O36      O      0.451240000000     0.137470000000     0.005520000000    -0.449744   
O37      O      0.452010000000     0.186990000000     0.009620000000    -0.44964    
O38      O      0.537430000000     0.185620000000     0.004800000000    -0.449818   
O39      O      0.493090000000     0.186160000000     0.943340000000    -0.449813   
O40      O      0.496400000000     0.186430000000     0.071100000000    -0.449914   
O41      O      0.500720000000     0.136930000000     0.443290000000    -0.449521   
O42      O      0.497200000000     0.136570000000     0.571060000000    -0.449728   
O43      O      0.456310000000     0.136090000000     0.504530000000    -0.449914   
O44      O      0.541710000000     0.137400000000     0.509740000000    -0.4497     
O45      O      0.540960000000     0.186920000000     0.505620000000    -0.449928   
O46      O      0.455520000000     0.185590000000     0.509200000000    -0.449804   
O47      O      0.499470000000     0.186120000000     0.571350000000    -0.450001   
O48      O      0.496970000000     0.186400000000     0.443570000000    -0.449953   
O49      O      0.137430000000     0.499350000000     0.047400000000    -0.449741   
O50      O      0.138120000000     0.498320000000     0.919540000000    -0.449917   
O51      O      0.136630000000     0.455870000000     0.984420000000    -0.448836   
O52      O      0.138900000000     0.541320000000     0.982490000000    -0.450634   
O53      O      0.188460000000     0.540000000000     0.985150000000    -0.448807   
O54      O      0.186220000000     0.454550000000     0.982940000000    -0.450862   
O55      O      0.187740000000     0.497530000000     0.920150000000    -0.450237   
O56      O      0.186950000000     0.496370000000     0.047930000000    -0.450492   
O57      O      0.138300000000     0.491690000000     0.548130000000    -0.450662   
O58      O      0.137310000000     0.492730000000     0.420270000000    -0.449182   
O59      O      0.139300000000     0.449750000000     0.483690000000    -0.451089   
O60      O      0.136280000000     0.535150000000     0.485340000000    -0.449092   
O61      O      0.185860000000     0.536920000000     0.483790000000    -0.451098   
O62      O      0.188880000000     0.451500000000     0.482500000000    -0.44901    
O63      O      0.186880000000     0.494930000000     0.419500000000    -0.45123    
O64      O      0.187860000000     0.494130000000     0.547270000000    -0.449929   
O65      O      0.786290000000     0.822760000000     0.954190000000    -0.449778   
O66      O      0.871640000000     0.822120000000     0.959320000000    -0.451492   
O67      O      0.828960000000     0.779790000000     0.958000000000    -0.450404   
O68      O      0.829410000000     0.865260000000     0.955550000000    -0.449702   
O69      O      0.825530000000     0.866110000000     0.029520000000    -0.450599   
O70      O      0.828030000000     0.780770000000     0.032180000000    -0.450437   
O71      O      0.869770000000     0.824890000000     0.033360000000    -0.448057   
O72      O      0.784290000000     0.822060000000     0.028320000000    -0.44997    
O73      O      0.782660000000     0.828360000000     0.451410000000    -0.449943   
O74      O      0.867990000000     0.829290000000     0.455780000000    -0.45214    
O75      O      0.825860000000     0.785980000000     0.454600000000    -0.449472   
O76      O      0.825340000000     0.871500000000     0.452680000000    -0.449895   
O77      O      0.824320000000     0.872090000000     0.526880000000    -0.450846   
O78      O      0.822520000000     0.786730000000     0.528620000000    -0.450638   
O79      O      0.866390000000     0.828330000000     0.529940000000    -0.448861   
O80      O      0.780930000000     0.830500000000     0.525500000000    -0.450778   
O81      O      0.785520000000     0.156370000000     0.033940000000    -0.450405   
O82      O      0.870850000000     0.156330000000     0.029150000000    -0.452224   
O83      O      0.828440000000     0.199270000000     0.033130000000    -0.450283   
O84      O      0.828430000000     0.113900000000     0.029940000000    -0.452086   
O85      O      0.826170000000     0.115060000000     0.955830000000    -0.448497   
O86      O      0.826110000000     0.200550000000     0.959030000000    -0.450198   
O87      O      0.869130000000     0.158170000000     0.955030000000    -0.447962   
O88      O      0.783620000000     0.157970000000     0.959830000000    -0.450016   
O89      O      0.830660000000     0.206640000000     0.458400000000    -0.450357   
O90      O      0.829670000000     0.121180000000     0.454630000000    -0.448521   
O91      O      0.787690000000     0.164530000000     0.459500000000    -0.449673   
O92      O      0.873190000000     0.163730000000     0.453520000000    -0.44774    
O93      O      0.875310000000     0.161750000000     0.527600000000    -0.452455   
O94      O      0.790030000000     0.162600000000     0.533570000000    -0.450429   
O95      O      0.832490000000     0.119760000000     0.528700000000    -0.452249   
O96      O      0.833330000000     0.205120000000     0.532460000000    -0.45021    
O97      O      0.159840000000     0.208750000000     0.029590000000    -0.450338   
O98      O      0.160440000000     0.123250000000     0.034700000000    -0.448222   
O99      O      0.203070000000     0.166560000000     0.034700000000    -0.449566   
O100     O      0.117730000000     0.165900000000     0.029670000000    -0.451578   
O101     O      0.119580000000     0.162990000000     0.955640000000    -0.448705   
O102     O      0.205060000000     0.164650000000     0.960610000000    -0.450409   
O103     O      0.163330000000     0.121440000000     0.960670000000    -0.451756   
O104     O      0.161730000000     0.206740000000     0.955510000000    -0.449875   
O105     O      0.165790000000     0.203890000000     0.526610000000    -0.450679   
O106     O      0.163420000000     0.118400000000     0.530170000000    -0.448636   
O107     O      0.207420000000     0.160280000000     0.531100000000    -0.450865   
O108     O      0.122210000000     0.162550000000     0.525860000000    -0.452478   
O109     O      0.123950000000     0.160140000000     0.451780000000    -0.447432   
O110     O      0.209520000000     0.158870000000     0.456990000000    -0.449459   
O111     O      0.166300000000     0.117040000000     0.456120000000    -0.451033   
O112     O      0.167670000000     0.202410000000     0.452500000000    -0.449208   
O113     O      0.205830000000     0.830980000000     0.030390000000    -0.449493   
O114     O      0.120310000000     0.828550000000     0.034670000000    -0.447337   
O115     O      0.164460000000     0.787230000000     0.030030000000    -0.449032   
O116     O      0.162220000000     0.872720000000     0.035070000000    -0.44752    
O117     O      0.160050000000     0.874470000000     0.960970000000    -0.452188   
O118     O      0.162320000000     0.789180000000     0.955950000000    -0.450202   
O119     O      0.118750000000     0.830970000000     0.960590000000    -0.452301   
O120     O      0.204060000000     0.833200000000     0.956310000000    -0.45045    
O121     O      0.159040000000     0.783890000000     0.455340000000    -0.451137   
O122     O      0.157180000000     0.869250000000     0.457590000000    -0.450922   
O123     O      0.200830000000     0.827470000000     0.455100000000    -0.45118    
O124     O      0.115510000000     0.825530000000     0.457790000000    -0.45181    
O125     O      0.116440000000     0.827790000000     0.531910000000    -0.448393   
O126     O      0.201910000000     0.823760000000     0.529080000000    -0.448578   
O127     O      0.161210000000     0.868510000000     0.531540000000    -0.448235   
O128     O      0.157180000000     0.783050000000     0.529470000000    -0.44856    


