data_structure

_audit_creation_method RASPA-1.0
_audit_creation_date 2023-5-23
_audit_author_name 'Poobodin Mano'

_cell_length_a    44.8336
_cell_length_b    44.8201
_cell_length_c    29.9617
_cell_angle_alpha 90
_cell_angle_beta  90
_cell_angle_gamma 90
_cell_volume      60206.4

_symmetry_cell_setting          triclinic
_symmetry_space_group_name_Hall 'P 1'
_symmetry_space_group_name_H-M  'P 1'
_symmetry_Int_Tables_number     1

_symmetry_equiv_pos_as_xyz 'x,y,z'

loop_
_atom_site_label
_atom_site_type_symbol
_atom_site_fract_x
_atom_site_fract_y
_atom_site_fract_z
_atom_site_charge
C1       C      0.267350000000     0.994900000000     0.993410000000     0.431101   
C2       C      0.381410000000     0.994920000000     0.993430000000     0.431522   
C3       C      0.324560000000     0.995210000000     0.908080000000     0.431357   
C4       C      0.324550000000     0.994610000000     0.078750000000     0.431317   
C5       C      0.273450000000     0.994900000000     0.493400000000     0.431607   
C6       C      0.387480000000     0.994920000000     0.493430000000     0.431447   
C7       C      0.330300000000     0.994650000000     0.408080000000     0.431457   
C8       C      0.330290000000     0.995170000000     0.578750000000     0.431434   
C9       C      0.994970000000     0.662270000000     0.904350000000     0.431848   
C10      C      0.995640000000     0.661570000000     0.075000000000     0.431984   
C11      C      0.997110000000     0.604910000000     0.989300000000     0.432184   
C12      C      0.993600000000     0.718950000000     0.990070000000     0.431623   
C13      C      0.995130000000     0.661240000000     0.404310000000     0.43221    
C14      C      0.994200000000     0.662700000000     0.574950000000     0.432024   
C15      C      0.993070000000     0.604960000000     0.491070000000     0.431977   
C16      C      0.996180000000     0.719020000000     0.488300000000     0.431829   
C17      C      0.658660000000     0.995620000000     0.908340000000     0.431186   
C18      C      0.658650000000     0.994210000000     0.079000000000     0.431427   
C19      C      0.715540000000     0.994900000000     0.993670000000     0.431538   
C20      C      0.601510000000     0.994920000000     0.993650000000     0.431628   
C21      C      0.664540000000     0.994060000000     0.408320000000     0.431502   
C22      C      0.664530000000     0.995760000000     0.579010000000     0.431505   
C23      C      0.721710000000     0.994910000000     0.493670000000     0.431072   
C24      C      0.607620000000     0.994920000000     0.493650000000     0.431383   
C25      C      0.048410000000     0.994870000000     0.993500000000     0.433421   
C26      C      0.934350000000     0.994870000000     0.993580000000     0.433745   
C27      C      0.991240000000     0.051910000000     0.994510000000     0.433564   
C28      C      0.991240000000     0.937820000000     0.992570000000     0.433764   
C29      C      0.054660000000     0.994870000000     0.493500000000     0.434044   
C30      C      0.940570000000     0.994870000000     0.493580000000     0.433599   
C31      C      0.997790000000     0.051910000000     0.495970000000     0.433783   
C32      C      0.997790000000     0.937830000000     0.491100000000     0.434005   
C33      C      0.995640000000     0.328170000000     0.912080000000     0.432039   
C34      C      0.994980000000     0.327470000000     0.082730000000     0.432102   
C35      C      0.997110000000     0.384830000000     0.997780000000     0.431793   
C36      C      0.993600000000     0.270780000000     0.997010000000     0.431542   
C37      C      0.994200000000     0.327040000000     0.412130000000     0.432013   
C38      C      0.995130000000     0.328490000000     0.582770000000     0.432219   
C39      C      0.993070000000     0.384780000000     0.496010000000     0.431998   
C40      C      0.996180000000     0.270720000000     0.498780000000     0.431778   
C41      C      0.969590000000     0.322280000000     0.698510000000    -0.0860789  
C42      C      0.995710000000     0.328770000000     0.722460000000     0.0325553  
C43      C      0.021670000000     0.335170000000     0.698050000000    -0.0836594  
C44      C      0.021200000000     0.334580000000     0.651430000000     0.0739657  
C45      C      0.969710000000     0.322770000000     0.651930000000     0.0719187  
C46      C      0.995810000000     0.328810000000     0.772390000000     0.0325089  
C47      C      0.969950000000     0.335910000000     0.796620000000    -0.0859859  
C48      C      0.970200000000     0.335170000000     0.843190000000     0.0718547  
C49      C      0.021360000000     0.322010000000     0.843160000000     0.0739821  
C50      C      0.021680000000     0.321660000000     0.796540000000    -0.0837764  
C51      C      0.968150000000     0.320100000000     0.296610000000    -0.0858587  
C52      C      0.994160000000     0.326790000000     0.272410000000     0.0325456  
C53      C      0.020090000000     0.333590000000     0.296640000000    -0.083999   
C54      C      0.019780000000     0.333060000000     0.343200000000     0.0741536  
C55      C      0.968410000000     0.320760000000     0.343250000000     0.0718012  
C56      C      0.994300000000     0.326760000000     0.222440000000     0.0325092  
C57      C      0.020490000000     0.320540000000     0.198410000000    -0.0838825  
C58      C      0.020420000000     0.321370000000     0.151830000000     0.0741704  
C59      C      0.968840000000     0.332750000000     0.151420000000     0.0718625  
C60      C      0.968320000000     0.333100000000     0.198030000000    -0.0858679  
C61      C      0.971310000000     0.192970000000     0.505830000000    -0.087582   
C62      C      0.998190000000     0.177730000000     0.500180000000     0.0325824  
C63      C      0.024470000000     0.193990000000     0.494430000000    -0.0851705  
C64      C      0.023500000000     0.225160000000     0.494680000000     0.073694   
C65      C      0.971030000000     0.224110000000     0.505000000000     0.0717394  
C66      C      0.998610000000     0.144890000000     0.499360000000     0.0326436  
C67      C      0.994440000000     0.128550000000     0.538550000000    -0.0874611  
C68      C      0.994570000000     0.097390000000     0.536950000000     0.0717122  
C69      C      0.002020000000     0.098590000000     0.458560000000     0.0742319  
C70      C      0.002620000000     0.129730000000     0.459130000000    -0.0853877  
C71      C      0.985220000000     0.129430000000     0.956530000000    -0.0886151  
C72      C      0.990750000000     0.144920000000     0.996110000000     0.0364108  
C73      C      0.996300000000     0.128870000000     0.035180000000    -0.0908054  
C74      C      0.995980000000     0.097720000000     0.034190000000     0.0704726  
C75      C      0.985780000000     0.098270000000     0.956470000000     0.0724474  
C76      C      0.991330000000     0.177790000000     0.996480000000     0.031164   
C77      C      0.018030000000     0.192930000000     0.004280000000    -0.0845666  
C78      C      0.018430000000     0.224070000000     0.003850000000     0.0736826  
C79      C      0.966350000000     0.225350000000     0.989790000000     0.071287   
C80      C      0.965320000000     0.194190000000     0.988910000000    -0.0865672  
C81      C      0.798950000000     0.968220000000     0.498470000000    -0.0867487  
C82      C      0.814720000000     0.994890000000     0.493660000000     0.030975   
C83      C      0.798960000000     0.021560000000     0.488860000000    -0.0844704  
C84      C      0.767810000000     0.021220000000     0.489410000000     0.07342    
C85      C      0.767800000000     0.968580000000     0.497940000000     0.0712733  
C86      C      0.847560000000     0.994880000000     0.493640000000     0.0363115  
C87      C      0.863330000000     0.989890000000     0.533110000000    -0.0888049  
C88      C      0.894490000000     0.990270000000     0.532600000000     0.0721658  
C89      C      0.894470000000     0.999490000000     0.454610000000     0.0700004  
C90      C      0.863310000000     0.999870000000     0.454150000000    -0.0909271  
C91      C      0.667320000000     0.022180000000     0.793340000000    -0.083603   
C92      C      0.660910000000     0.996340000000     0.768630000000     0.0323531  
C93      C      0.653330000000     0.970370000000     0.792300000000    -0.0858953  
C94      C      0.652990000000     0.970460000000     0.838900000000     0.0717391  
C95      C      0.665880000000     0.021690000000     0.839930000000     0.0737689  
C96      C      0.662210000000     0.996380000000     0.718710000000     0.032379   
C97      C      0.656360000000     0.022400000000     0.694070000000    -0.0834898  
C98      C      0.657840000000     0.021970000000     0.647470000000     0.0737949  
C99      C      0.669710000000     0.970480000000     0.648390000000     0.0717417  
C100     C      0.669310000000     0.970320000000     0.694970000000    -0.0860068  
C101     C      0.669320000000     0.019510000000     0.292350000000    -0.0838266  
C102     C      0.662210000000     0.993450000000     0.268620000000     0.0323725  
C103     C      0.656350000000     0.967430000000     0.293260000000    -0.0856916  
C104     C      0.657840000000     0.967860000000     0.339860000000     0.0715102  
C105     C      0.669730000000     0.019340000000     0.338940000000     0.0739975  
C106     C      0.660910000000     0.993490000000     0.218700000000     0.0323276  
C107     C      0.653340000000     0.019460000000     0.195030000000    -0.0836358  
C108     C      0.652990000000     0.019370000000     0.148430000000     0.0738943  
C109     C      0.665860000000     0.968130000000     0.147410000000     0.0715264  
C110     C      0.667300000000     0.967650000000     0.193990000000    -0.0857533  
C111     C      0.792740000000     0.968750000000     0.984350000000    -0.0877683  
C112     C      0.808510000000     0.994890000000     0.993660000000     0.0334275  
C113     C      0.792750000000     0.021020000000     0.002970000000    -0.0855822  
C114     C      0.761600000000     0.020730000000     0.002290000000     0.0741252  
C115     C      0.761590000000     0.969050000000     0.985040000000     0.0716852  
C116     C      0.841370000000     0.994880000000     0.993640000000     0.0301612  
C117     C      0.857160000000     0.000250000000     0.033000000000    -0.0794032  
C118     C      0.888300000000     0.999800000000     0.032520000000     0.0645319  
C119     C      0.888270000000     0.989950000000     0.954700000000     0.0708399  
C120     C      0.857130000000     0.989500000000     0.954250000000    -0.0860861  
C121     C      0.017800000000     0.527580000000     0.503300000000    -0.0839027  
C122     C      0.991680000000     0.511570000000     0.493550000000     0.0325298  
C123     C      0.965780000000     0.527950000000     0.483680000000    -0.0855222  
C124     C      0.966440000000     0.559160000000     0.483840000000     0.0716146  
C125     C      0.017890000000     0.558670000000     0.501700000000     0.0743648  
C126     C      0.991680000000     0.478160000000     0.493530000000     0.0325779  
C127     C      0.017800000000     0.462160000000     0.483780000000    -0.0839206  
C128     C      0.017900000000     0.431070000000     0.485380000000     0.0742674  
C129     C      0.966440000000     0.430580000000     0.503240000000     0.0716368  
C130     C      0.965780000000     0.461780000000     0.503400000000    -0.085564   
C131     C      0.971310000000     0.796770000000     0.481200000000    -0.0875248  
C132     C      0.998180000000     0.812010000000     0.486890000000     0.032476   
C133     C      0.024460000000     0.795740000000     0.492690000000    -0.0851696  
C134     C      0.023500000000     0.764580000000     0.492440000000     0.0736223  
C135     C      0.971030000000     0.765620000000     0.482040000000     0.0716097  
C136     C      0.998610000000     0.844840000000     0.487710000000     0.0324866  
C137     C      0.994380000000     0.861180000000     0.448540000000    -0.0874918  
C138     C      0.994520000000     0.892350000000     0.450130000000     0.0714347  
C139     C      0.002070000000     0.891150000000     0.528510000000     0.0739718  
C140     C      0.002670000000     0.860010000000     0.527930000000    -0.0853864  
C141     C      0.972570000000     0.527210000000     0.981300000000    -0.086115   
C142     C      0.998670000000     0.511550000000     0.992310000000     0.0324884  
C143     C      0.024550000000     0.528220000000     0.001130000000    -0.083297   
C144     C      0.023850000000     0.559380000000     0.998920000000     0.0736335  
C145     C      0.972450000000     0.558320000000     0.980820000000     0.0721883  
C146     C      0.998670000000     0.478190000000     0.994760000000     0.0325224  
C147     C      0.972570000000     0.462520000000     0.005770000000    -0.0860937  
C148     C      0.972450000000     0.431420000000     0.006260000000     0.0722688  
C149     C      0.023850000000     0.430350000000     0.988150000000     0.0737733  
C150     C      0.024550000000     0.461520000000     0.985940000000    -0.0834483  
C151     C      0.968150000000     0.669630000000     0.690460000000    -0.0857149  
C152     C      0.994160000000     0.662950000000     0.714670000000     0.032467   
C153     C      0.020080000000     0.656150000000     0.690440000000    -0.083925   
C154     C      0.019770000000     0.656670000000     0.643880000000     0.0741611  
C155     C      0.968400000000     0.668980000000     0.643830000000     0.0716722  
C156     C      0.994300000000     0.662980000000     0.764640000000     0.0325113  
C157     C      0.020480000000     0.669200000000     0.788670000000    -0.0838188  
C158     C      0.020420000000     0.668370000000     0.835250000000     0.074058   
C159     C      0.968840000000     0.656990000000     0.835660000000     0.0719099  
C160     C      0.968320000000     0.656640000000     0.789050000000    -0.0858911  
C161     C      0.969950000000     0.653820000000     0.190460000000    -0.0860128  
C162     C      0.995810000000     0.660920000000     0.214680000000     0.0325268  
C163     C      0.021680000000     0.668080000000     0.190540000000    -0.0838181  
C164     C      0.021360000000     0.667720000000     0.143920000000     0.0739845  
C165     C      0.970200000000     0.654560000000     0.143890000000     0.0718513  
C166     C      0.995710000000     0.660960000000     0.264620000000     0.0325431  
C167     C      0.969590000000     0.667450000000     0.288570000000    -0.0860847  
C168     C      0.969710000000     0.666970000000     0.335150000000     0.0719014  
C169     C      0.021200000000     0.655160000000     0.335650000000     0.0739894  
C170     C      0.021670000000     0.654570000000     0.289030000000    -0.0836743  
C171     C      0.996270000000     0.860870000000     0.951900000000    -0.0909418  
C172     C      0.990740000000     0.844810000000     0.990980000000     0.0362848  
C173     C      0.985240000000     0.860300000000     0.030560000000    -0.0886613  
C174     C      0.985800000000     0.891470000000     0.030620000000     0.0722564  
C175     C      0.995950000000     0.892020000000     0.952890000000     0.0702521  
C176     C      0.991330000000     0.811950000000     0.990610000000     0.0311637  
C177     C      0.965320000000     0.795540000000     0.998160000000    -0.0865918  
C178     C      0.966350000000     0.764380000000     0.997290000000     0.0711708  
C179     C      0.018430000000     0.765670000000     0.983240000000     0.0736049  
C180     C      0.018030000000     0.796810000000     0.982810000000    -0.0847489  
C181     C      0.464690000000     0.020900000000     0.503610000000    -0.0836498  
C182     C      0.480860000000     0.994930000000     0.493520000000     0.0324682  
C183     C      0.464700000000     0.968960000000     0.483390000000    -0.0858052  
C184     C      0.433550000000     0.969250000000     0.484150000000     0.0717602  
C185     C      0.433540000000     0.020600000000     0.502780000000     0.0739289  
C186     C      0.514240000000     0.994930000000     0.493560000000     0.0324963  
C187     C      0.530410000000     0.020880000000     0.483370000000    -0.0836657  
C188     C      0.561560000000     0.020590000000     0.484210000000     0.0739926  
C189     C      0.561550000000     0.969270000000     0.503020000000     0.0717275  
C190     C      0.530400000000     0.968980000000     0.503790000000    -0.0858285  
C191     C      0.196250000000     0.968650000000     0.502120000000    -0.086752   
C192     C      0.180480000000     0.994880000000     0.493420000000     0.031133   
C193     C      0.196230000000     0.021110000000     0.484710000000    -0.0845037  
C194     C      0.227380000000     0.020810000000     0.485360000000     0.0736089  
C195     C      0.227390000000     0.968970000000     0.501450000000     0.0714751  
C196     C      0.147630000000     0.994870000000     0.493440000000     0.0366208  
C197     C      0.131860000000     0.999440000000     0.453840000000    -0.0910237  
C198     C      0.100720000000     0.999020000000     0.454350000000     0.0705515  
C199     C      0.100740000000     0.990720000000     0.532580000000     0.0726315  
C200     C      0.131890000000     0.990310000000     0.533050000000    -0.0888509  
C201     C      0.458620000000     0.969030000000     0.982980000000    -0.0858463  
C202     C      0.474770000000     0.994930000000     0.993510000000     0.0324445  
C203     C      0.458600000000     0.020830000000     0.004010000000    -0.0836099  
C204     C      0.427460000000     0.020540000000     0.003180000000     0.0740496  
C205     C      0.427470000000     0.969320000000     0.983750000000     0.0717202  
C206     C      0.508150000000     0.994930000000     0.993560000000     0.0324077  
C207     C      0.524300000000     0.968920000000     0.003450000000    -0.0857051  
C208     C      0.555450000000     0.969210000000     0.002690000000     0.0717079  
C209     C      0.555460000000     0.020650000000     0.984550000000     0.0739501  
C210     C      0.524320000000     0.020940000000     0.983720000000    -0.0835981  
C211     C      0.321720000000     0.021350000000     0.693920000000    -0.083674   
C212     C      0.327990000000     0.995400000000     0.718450000000     0.0323715  
C213     C      0.335310000000     0.969430000000     0.694620000000    -0.0858096  
C214     C      0.335670000000     0.969670000000     0.648000000000     0.0716127  
C215     C      0.323140000000     0.021000000000     0.647350000000     0.0738113  
C216     C      0.326880000000     0.995410000000     0.768380000000     0.0323533  
C217     C      0.333150000000     0.021360000000     0.792900000000    -0.0835796  
C218     C      0.331720000000     0.021040000000     0.839470000000     0.0737691  
C219     C      0.319160000000     0.969710000000     0.838830000000     0.0715098  
C220     C      0.319540000000     0.969460000000     0.792220000000    -0.0857765  
C221     C      0.335310000000     0.020390000000     0.292210000000    -0.0836157  
C222     C      0.327990000000     0.994420000000     0.268380000000     0.0323472  
C223     C      0.321740000000     0.968470000000     0.292910000000    -0.0857985  
C224     C      0.323160000000     0.968810000000     0.339470000000     0.0715456  
C225     C      0.335670000000     0.020150000000     0.338830000000     0.0738016  
C226     C      0.326880000000     0.994410000000     0.218450000000     0.0324025  
C227     C      0.319530000000     0.020360000000     0.194610000000    -0.0837213  
C228     C      0.319150000000     0.020100000000     0.148000000000     0.073876   
C229     C      0.331720000000     0.968790000000     0.147360000000     0.0716271  
C230     C      0.333160000000     0.968460000000     0.193930000000    -0.085806   
C231     C      0.190110000000     0.021120000000     0.984770000000    -0.0850747  
C232     C      0.174320000000     0.994880000000     0.993430000000     0.0324119  
C233     C      0.190120000000     0.968650000000     0.002070000000    -0.0871931  
C234     C      0.221270000000     0.968960000000     0.001380000000     0.0716011  
C235     C      0.221260000000     0.020820000000     0.985450000000     0.0737416  
C236     C      0.141430000000     0.994870000000     0.993450000000     0.0325314  
C237     C      0.125630000000     0.000880000000     0.954290000000    -0.0850726  
C238     C      0.094480000000     0.000420000000     0.954760000000     0.0741705  
C239     C      0.094500000000     0.989320000000     0.032190000000     0.071673   
C240     C      0.125660000000     0.988860000000     0.032620000000    -0.0872992  
H1       H      0.042320000000     0.341030000000     0.714570000000     0.0506226  
H2       H      0.041800000000     0.339640000000     0.634040000000     0.0262678  
H3       H      0.948970000000     0.317610000000     0.634980000000     0.026223   
H4       H      0.949070000000     0.316390000000     0.715340000000     0.0505102  
H5       H      0.949540000000     0.342410000000     0.779990000000     0.0505787  
H6       H      0.949660000000     0.340760000000     0.860360000000     0.0263274  
H7       H      0.041880000000     0.316300000000     0.860330000000     0.0262634  
H8       H      0.042110000000     0.315320000000     0.779820000000     0.0506324  
H9       H      0.040610000000     0.339760000000     0.280070000000     0.0505877  
H10      H      0.040390000000     0.338450000000     0.360330000000     0.0260965  
H11      H      0.947800000000     0.315490000000     0.360490000000     0.026106   
H12      H      0.947650000000     0.313970000000     0.279960000000     0.0505067  
H13      H      0.041030000000     0.314660000000     0.215170000000     0.0504565  
H14      H      0.041200000000     0.316490000000     0.134800000000     0.0259352  
H15      H      0.948220000000     0.337790000000     0.134080000000     0.0261648  
H16      H      0.947620000000     0.338790000000     0.214500000000     0.0505253  
H17      H      0.045620000000     0.182680000000     0.489940000000     0.053055   
H18      H      0.044350000000     0.237040000000     0.490190000000     0.0265256  
H19      H      0.949680000000     0.235120000000     0.509180000000     0.0265524  
H20      H      0.950600000000     0.180870000000     0.510230000000     0.0529931  
H21      H      0.991230000000     0.139800000000     0.570190000000     0.0528783  
H22      H      0.991350000000     0.085450000000     0.568050000000     0.0266975  
H23      H      0.005040000000     0.087630000000     0.426610000000     0.0272484  
H24      H      0.005800000000     0.141890000000     0.428240000000     0.0534755  
H25      H      0.000680000000     0.140340000000     0.066330000000     0.055595   
H26      H      0.000290000000     0.086040000000     0.065220000000     0.0291459  
H27      H      0.981600000000     0.087030000000     0.925050000000     0.0265705  
H28      H      0.980950000000     0.141350000000     0.925720000000     0.0530887  
H29      H      0.038540000000     0.180750000000     0.010160000000     0.052834   
H30      H      0.039640000000     0.234990000000     0.009800000000     0.0265669  
H31      H      0.945710000000     0.237350000000     0.984000000000     0.0265895  
H32      H      0.944300000000     0.182980000000     0.982820000000     0.0525833  
H33      H      0.810670000000     0.042560000000     0.485120000000     0.0527983  
H34      H      0.756360000000     0.042390000000     0.485800000000     0.0265028  
H35      H      0.756340000000     0.947410000000     0.501550000000     0.0265514  
H36      H      0.810650000000     0.947220000000     0.502200000000     0.0526084  
H37      H      0.851640000000     0.985980000000     0.564220000000     0.0529608  
H38      H      0.905950000000     0.986430000000     0.563950000000     0.0260936  
H39      H      0.905910000000     0.003320000000     0.423250000000     0.0288407  
H40      H      0.851600000000     0.003780000000     0.423050000000     0.0555922  
H41      H      0.647330000000     0.949980000000     0.775190000000     0.0505448  
H42      H      0.647130000000     0.949820000000     0.855630000000     0.0263161  
H43      H      0.671110000000     0.042180000000     0.857520000000     0.0263622  
H44      H      0.673940000000     0.042700000000     0.777120000000     0.0505459  
H45      H      0.650140000000     0.043020000000     0.710360000000     0.0505797  
H46      H      0.653050000000     0.042570000000     0.629910000000     0.0262831  
H47      H      0.675180000000     0.949750000000     0.631630000000     0.0262184  
H48      H      0.674890000000     0.949790000000     0.712010000000     0.0504493  
H49      H      0.650130000000     0.946810000000     0.276980000000     0.0505332  
H50      H      0.653040000000     0.947260000000     0.357430000000     0.0263371  
H51      H      0.675210000000     0.040070000000     0.355700000000     0.0261496  
H52      H      0.674920000000     0.040040000000     0.275310000000     0.0504704  
H53      H      0.647350000000     0.039860000000     0.212140000000     0.0505653  
H54      H      0.647140000000     0.040010000000     0.131700000000     0.0262934  
H55      H      0.671080000000     0.947650000000     0.129810000000     0.0263888  
H56      H      0.673920000000     0.947120000000     0.210210000000     0.0504328  
H57      H      0.804440000000     0.041620000000     0.010220000000     0.0528711  
H58      H      0.750150000000     0.041490000000     0.009440000000     0.0264423  
H59      H      0.750130000000     0.948300000000     0.977900000000     0.0264947  
H60      H      0.804420000000     0.948150000000     0.977090000000     0.0527204  
H61      H      0.845480000000     0.004430000000     0.064040000000     0.0516441  
H62      H      0.899760000000     0.003900000000     0.063780000000     0.030159   
H63      H      0.899720000000     0.985850000000     0.923420000000     0.0264592  
H64      H      0.845440000000     0.985320000000     0.923230000000     0.0521389  
H65      H      0.945100000000     0.516940000000     0.475070000000     0.050539   
H66      H      0.945960000000     0.570870000000     0.475890000000     0.0261921  
H67      H      0.038700000000     0.569930000000     0.509280000000     0.0261148  
H68      H      0.038240000000     0.516360000000     0.512650000000     0.0505548  
H69      H      0.038240000000     0.473370000000     0.474440000000     0.0505752  
H70      H      0.038700000000     0.419810000000     0.477800000000     0.0261337  
H71      H      0.945960000000     0.418870000000     0.511190000000     0.0261904  
H72      H      0.945100000000     0.472790000000     0.512020000000     0.0505439  
H73      H      0.045600000000     0.807060000000     0.497220000000     0.0529081  
H74      H      0.044340000000     0.752690000000     0.496960000000     0.0264917  
H75      H      0.949690000000     0.754610000000     0.477830000000     0.0265135  
H76      H      0.950600000000     0.808870000000     0.476770000000     0.0528176  
H77      H      0.991130000000     0.849930000000     0.416900000000     0.0526135  
H78      H      0.991250000000     0.904290000000     0.419040000000     0.0262201  
H79      H      0.005130000000     0.902100000000     0.560450000000     0.0268897  
H80      H      0.005890000000     0.847840000000     0.558810000000     0.0532671  
H81      H      0.045220000000     0.517490000000     0.010560000000     0.0505879  
H82      H      0.044310000000     0.571330000000     0.006250000000     0.0263122  
H83      H      0.951650000000     0.569340000000     0.972440000000     0.0261924  
H84      H      0.952170000000     0.515690000000     0.972640000000     0.0505746  
H85      H      0.952170000000     0.474040000000     0.014430000000     0.0506053  
H86      H      0.951650000000     0.420400000000     0.014630000000     0.0261966  
H87      H      0.044310000000     0.418410000000     0.980830000000     0.0262143  
H88      H      0.045220000000     0.472250000000     0.976510000000     0.0505868  
H89      H      0.040610000000     0.649970000000     0.707010000000     0.0505246  
H90      H      0.040390000000     0.651290000000     0.626740000000     0.0260961  
H91      H      0.947800000000     0.674250000000     0.626590000000     0.0260998  
H92      H      0.947640000000     0.675770000000     0.707120000000     0.0504017  
H93      H      0.041030000000     0.675070000000     0.771910000000     0.0503911  
H94      H      0.041200000000     0.673250000000     0.852270000000     0.0259266  
H95      H      0.948220000000     0.651950000000     0.853000000000     0.0261413  
H96      H      0.947620000000     0.650940000000     0.772580000000     0.0505146  
H97      H      0.042110000000     0.674410000000     0.207260000000     0.0506226  
H98      H      0.041880000000     0.673430000000     0.126750000000     0.026251   
H99      H      0.949660000000     0.648970000000     0.126710000000     0.0263353  
H100     H      0.949540000000     0.647320000000     0.207090000000     0.0505787  
H101     H      0.949070000000     0.673340000000     0.271740000000     0.0504768  
H102     H      0.948970000000     0.672120000000     0.352100000000     0.0261966  
H103     H      0.041800000000     0.650100000000     0.353040000000     0.0262466  
H104     H      0.042320000000     0.648710000000     0.272510000000     0.050617   
H105     H      0.981000000000     0.848390000000     0.061380000000     0.0528981  
H106     H      0.981650000000     0.902710000000     0.062050000000     0.0261273  
H107     H      0.000230000000     0.903690000000     0.921850000000     0.0287261  
H108     H      0.000620000000     0.849390000000     0.920740000000     0.0554     
H109     H      0.944290000000     0.806750000000     0.004250000000     0.0524749  
H110     H      0.945710000000     0.752390000000     0.003060000000     0.0266012  
H111     H      0.039640000000     0.754750000000     0.977300000000     0.0265056  
H112     H      0.038530000000     0.808980000000     0.976940000000     0.0527511  
H113     H      0.475850000000     0.948440000000     0.474250000000     0.0505697  
H114     H      0.422080000000     0.948630000000     0.476130000000     0.0264093  
H115     H      0.422060000000     0.041210000000     0.510780000000     0.0263749  
H116     H      0.475830000000     0.041410000000     0.512780000000     0.0506517  
H117     H      0.519270000000     0.041380000000     0.474130000000     0.0506348  
H118     H      0.573040000000     0.041190000000     0.476130000000     0.0263238  
H119     H      0.573020000000     0.948670000000     0.511130000000     0.0263821  
H120     H      0.519250000000     0.948480000000     0.513010000000     0.0505774  
H121     H      0.184530000000     0.041770000000     0.477920000000     0.0528345  
H122     H      0.238830000000     0.041640000000     0.478670000000     0.0266142  
H123     H      0.238850000000     0.948140000000     0.508130000000     0.0266348  
H124     H      0.184550000000     0.947990000000     0.508920000000     0.0526271  
H125     H      0.143550000000     0.003000000000     0.422640000000     0.0557382  
H126     H      0.089250000000     0.002490000000     0.422910000000     0.0291021  
H127     H      0.089300000000     0.987250000000     0.564030000000     0.0263369  
H128     H      0.143590000000     0.986750000000     0.564240000000     0.0530649  
H129     H      0.469750000000     0.041280000000     0.013500000000     0.050636   
H130     H      0.415980000000     0.041090000000     0.011510000000     0.0263401  
H131     H      0.416000000000     0.948760000000     0.975390000000     0.0263935  
H132     H      0.469770000000     0.948580000000     0.973510000000     0.050569   
H133     H      0.513150000000     0.948360000000     0.012390000000     0.0505707  
H134     H      0.566920000000     0.948570000000     0.010520000000     0.0264304  
H135     H      0.566940000000     0.041290000000     0.976740000000     0.026357   
H136     H      0.513170000000     0.041500000000     0.974750000000     0.0505882  
H137     H      0.341120000000     0.948940000000     0.711620000000     0.0505392  
H138     H      0.341360000000     0.949050000000     0.631110000000     0.0263594  
H139     H      0.318060000000     0.041580000000     0.629920000000     0.026388   
H140     H      0.315250000000     0.041870000000     0.710280000000     0.0505585  
H141     H      0.339630000000     0.041880000000     0.776530000000     0.0505726  
H142     H      0.336810000000     0.041620000000     0.856900000000     0.0263794  
H143     H      0.313450000000     0.949090000000     0.855730000000     0.0263716  
H144     H      0.313710000000     0.948960000000     0.775240000000     0.0504299  
H145     H      0.315270000000     0.947940000000     0.276550000000     0.050463   
H146     H      0.318090000000     0.948230000000     0.356910000000     0.0264373  
H147     H      0.341360000000     0.040780000000     0.355720000000     0.026331   
H148     H      0.341110000000     0.040880000000     0.275210000000     0.0505975  
H149     H      0.313700000000     0.040850000000     0.211590000000     0.0505494  
H150     H      0.313430000000     0.040720000000     0.131100000000     0.0263231  
H151     H      0.336820000000     0.948200000000     0.129930000000     0.0264298  
H152     H      0.339650000000     0.947940000000     0.210300000000     0.0505313  
H153     H      0.178440000000     0.947970000000     0.008810000000     0.0526774  
H154     H      0.232740000000     0.948120000000     0.007990000000     0.0266094  
H155     H      0.232720000000     0.041660000000     0.978830000000     0.0265576  
H156     H      0.178420000000     0.041790000000     0.978040000000     0.0528271  
H157     H      0.137310000000     0.005560000000     0.923410000000     0.0531847  
H158     H      0.083010000000     0.005020000000     0.923650000000     0.027307   
H159     H      0.083050000000     0.984720000000     0.063320000000     0.0266636  
H160     H      0.137350000000     0.984190000000     0.063490000000     0.0526091  
N1       N      0.995360000000     0.328640000000     0.628540000000    -0.198695   
N2       N      0.995750000000     0.328440000000     0.866310000000    -0.198698   
N3       N      0.994090000000     0.326930000000     0.366360000000    -0.198696   
N4       N      0.994760000000     0.327210000000     0.128490000000    -0.198741   
N5       N      0.996930000000     0.240110000000     0.499530000000    -0.19841    
N6       N      0.998120000000     0.082510000000     0.497190000000    -0.19866    
N7       N      0.991000000000     0.082520000000     0.995050000000    -0.197441   
N8       N      0.992760000000     0.240180000000     0.996890000000    -0.19836    
N9       N      0.752320000000     0.994900000000     0.493670000000    -0.198221   
N10      N      0.909960000000     0.994870000000     0.493600000000    -0.197548   
N11      N      0.659110000000     0.995940000000     0.862550000000    -0.19842    
N12      N      0.664110000000     0.996120000000     0.624790000000    -0.198491   
N13      N      0.664120000000     0.993710000000     0.362540000000    -0.198512   
N14      N      0.659100000000     0.993880000000     0.124780000000    -0.198493   
N15      N      0.746130000000     0.994900000000     0.993670000000    -0.198667   
N16      N      0.903750000000     0.994870000000     0.993600000000    -0.19651    
N17      N      0.992410000000     0.574370000000     0.492190000000    -0.198597   
N18      N      0.992410000000     0.415360000000     0.494890000000    -0.198624   
N19      N      0.996930000000     0.749620000000     0.487550000000    -0.198463   
N20      N      0.998110000000     0.907220000000     0.489880000000    -0.198778   
N21      N      0.997870000000     0.574320000000     0.989550000000    -0.198644   
N22      N      0.997870000000     0.415420000000     0.997520000000    -0.19864    
N23      N      0.994090000000     0.662810000000     0.620720000000    -0.198684   
N24      N      0.994750000000     0.662530000000     0.858590000000    -0.198691   
N25      N      0.995750000000     0.661290000000     0.120770000000    -0.198695   
N26      N      0.995360000000     0.661090000000     0.358530000000    -0.198665   
N27      N      0.991000000000     0.907220000000     0.992030000000    -0.197723   
N28      N      0.992760000000     0.749550000000     0.990190000000    -0.198332   
N29      N      0.418080000000     0.994920000000     0.493450000000    -0.198468   
N30      N      0.577020000000     0.994930000000     0.493630000000    -0.198478   
N31      N      0.242850000000     0.994890000000     0.493400000000    -0.198428   
N32      N      0.085260000000     0.994870000000     0.493480000000    -0.197556   
N33      N      0.412000000000     0.994930000000     0.993450000000    -0.198611   
N34      N      0.570920000000     0.994930000000     0.993630000000    -0.198586   
N35      N      0.329770000000     0.995290000000     0.624530000000    -0.198474   
N36      N      0.325070000000     0.995340000000     0.862300000000    -0.198425   
N37      N      0.329790000000     0.994520000000     0.362300000000    -0.198454   
N38      N      0.325060000000     0.994480000000     0.124530000000    -0.19848    
N39      N      0.236740000000     0.994890000000     0.993410000000    -0.19834    
N40      N      0.079010000000     0.994870000000     0.993480000000    -0.198651   
Ni1      Ni     0.324380000000     0.021420000000     0.993650000000     1.00332    
Ni2      Ni     0.324390000000     0.968400000000     0.993180000000     0.998598   
Ni3      Ni     0.330450000000     0.021420000000     0.493240000000     1.00358    
Ni4      Ni     0.330470000000     0.968400000000     0.493590000000     0.999142   
Ni5      Ni     0.021860000000     0.662840000000     0.989500000000     1.0031     
Ni6      Ni     0.968840000000     0.661010000000     0.989840000000     1.00234    
Ni7      Ni     0.021140000000     0.661170000000     0.490100000000     1.00739    
Ni8      Ni     0.968100000000     0.662790000000     0.489160000000     0.998344   
Ni9      Ni     0.658530000000     0.021420000000     0.994120000000     1.00382    
Ni10     Ni     0.658520000000     0.968400000000     0.993210000000     0.999362   
Ni11     Ni     0.664650000000     0.021440000000     0.492940000000     1.00409    
Ni12     Ni     0.664650000000     0.968390000000     0.494380000000     0.999447   
Ni13     Ni     0.991350000000     0.995170000000     0.953880000000     0.997746   
Ni14     Ni     0.991370000000     0.994560000000     0.033210000000     0.997995   
Ni15     Ni     0.997620000000     0.995700000000     0.453870000000     0.998297   
Ni16     Ni     0.997650000000     0.994040000000     0.533210000000     0.998497   
Ni17     Ni     0.968840000000     0.328720000000     0.997230000000     1.00208    
Ni18     Ni     0.021860000000     0.326900000000     0.997580000000     1.00335    
Ni19     Ni     0.968110000000     0.326940000000     0.497920000000     0.998421   
Ni20     Ni     0.021140000000     0.328560000000     0.496980000000     1.00718    
O1       O      0.281680000000     0.019660000000     0.991310000000    -0.447412   
O2       O      0.367070000000     0.019660000000     0.996010000000    -0.447455   
O3       O      0.326010000000     0.019890000000     0.929730000000    -0.447281   
O4       O      0.322840000000     0.019430000000     0.057520000000    -0.447382   
O5       O      0.326020000000     0.969930000000     0.057100000000    -0.448585   
O6       O      0.322860000000     0.970390000000     0.929310000000    -0.448822   
O7       O      0.367090000000     0.970180000000     0.990840000000    -0.448792   
O8       O      0.281690000000     0.970140000000     0.995510000000    -0.448749   
O9       O      0.287770000000     0.019650000000     0.490960000000    -0.447786   
O10      O      0.373150000000     0.019680000000     0.495610000000    -0.447417   
O11      O      0.331980000000     0.019460000000     0.429340000000    -0.447376   
O12      O      0.328840000000     0.019860000000     0.557130000000    -0.447475   
O13      O      0.331980000000     0.970360000000     0.557490000000    -0.448769   
O14      O      0.328860000000     0.969960000000     0.429700000000    -0.448888   
O15      O      0.373160000000     0.970160000000     0.491240000000    -0.448982   
O16      O      0.287780000000     0.970160000000     0.495850000000    -0.44914    
O17      O      0.019870000000     0.662540000000     0.925560000000    -0.447365   
O18      O      0.020320000000     0.663400000000     0.053430000000    -0.447495   
O19      O      0.021460000000     0.619970000000     0.990500000000    -0.446667   
O20      O      0.018790000000     0.705400000000     0.988620000000    -0.448779   
O21      O      0.969260000000     0.703850000000     0.991390000000    -0.448612   
O22      O      0.971920000000     0.618480000000     0.988200000000    -0.4508     
O23      O      0.970850000000     0.659970000000     0.053700000000    -0.449921   
O24      O      0.970270000000     0.661780000000     0.925980000000    -0.45004    
O25      O      0.019770000000     0.660310000000     0.426100000000    -0.448015   
O26      O      0.019070000000     0.661750000000     0.553830000000    -0.449667   
O27      O      0.018210000000     0.618630000000     0.491530000000    -0.449626   
O28      O      0.020580000000     0.704010000000     0.489110000000    -0.447492   
O29      O      0.971020000000     0.705380000000     0.488250000000    -0.449938   
O30      O      0.968650000000     0.619920000000     0.489670000000    -0.447806   
O31      O      0.969500000000     0.663410000000     0.553240000000    -0.448007   
O32      O      0.970230000000     0.662450000000     0.425360000000    -0.449761   
O33      O      0.660180000000     0.020200000000     0.930210000000    -0.447389   
O34      O      0.656960000000     0.019120000000     0.057990000000    -0.447365   
O35      O      0.701210000000     0.019640000000     0.996450000000    -0.447679   
O36      O      0.615850000000     0.019690000000     0.991690000000    -0.447637   
O37      O      0.615840000000     0.970160000000     0.995630000000    -0.449224   
O38      O      0.701200000000     0.970180000000     0.990900000000    -0.449271   
O39      O      0.660160000000     0.969630000000     0.057120000000    -0.448779   
O40      O      0.656960000000     0.970700000000     0.929340000000    -0.448706   
O41      O      0.665700000000     0.019040000000     0.429190000000    -0.448402   
O42      O      0.663540000000     0.020340000000     0.557000000000    -0.446677   
O43      O      0.707370000000     0.019710000000     0.494150000000    -0.447507   
O44      O      0.621950000000     0.019680000000     0.491380000000    -0.447596   
O45      O      0.621940000000     0.970160000000     0.495930000000    -0.4489     
O46      O      0.707370000000     0.970110000000     0.493200000000    -0.448896   
O47      O      0.665680000000     0.970790000000     0.558140000000    -0.449783   
O48      O      0.663540000000     0.969490000000     0.430330000000    -0.448282   
O49      O      0.034060000000     0.996490000000     0.956490000000    -0.448194   
O50      O      0.948660000000     0.993810000000     0.956500000000    -0.449648   
O51      O      0.989980000000     0.037860000000     0.957220000000    -0.447891   
O52      O      0.992650000000     0.952440000000     0.955780000000    -0.449896   
O53      O      0.990000000000     0.951880000000     0.029860000000    -0.449633   
O54      O      0.992670000000     0.037290000000     0.031300000000    -0.448228   
O55      O      0.948680000000     0.995920000000     0.030630000000    -0.450021   
O56      O      0.034080000000     0.993250000000     0.030530000000    -0.447758   
O57      O      0.040330000000     0.995330000000     0.456410000000    -0.448607   
O58      O      0.954900000000     0.996230000000     0.456530000000    -0.449949   
O59      O      0.998240000000     0.038290000000     0.458300000000    -0.449336   
O60      O      0.997090000000     0.952870000000     0.454630000000    -0.449151   
O61      O      0.998270000000     0.951440000000     0.528770000000    -0.450914   
O62      O      0.997120000000     0.036860000000     0.532450000000    -0.447394   
O63      O      0.954920000000     0.993510000000     0.530610000000    -0.449596   
O64      O      0.040350000000     0.994410000000     0.530600000000    -0.448496   
O65      O      0.970850000000     0.329760000000     0.933380000000    -0.450012   
O66      O      0.970280000000     0.327960000000     0.061100000000    -0.449974   
O67      O      0.971920000000     0.371260000000     0.998870000000    -0.450562   
O68      O      0.969260000000     0.285880000000     0.995690000000    -0.448516   
O69      O      0.018790000000     0.284340000000     0.998460000000    -0.448739   
O70      O      0.021470000000     0.369760000000     0.996570000000    -0.446532   
O71      O      0.019870000000     0.327200000000     0.061520000000    -0.447519   
O72      O      0.020320000000     0.326340000000     0.933650000000    -0.447565   
O73      O      0.969500000000     0.326320000000     0.433840000000    -0.447984   
O74      O      0.970230000000     0.327280000000     0.561710000000    -0.449794   
O75      O      0.968650000000     0.369820000000     0.497410000000    -0.447698   
O76      O      0.971020000000     0.284360000000     0.498820000000    -0.449996   
O77      O      0.020580000000     0.285730000000     0.497980000000    -0.44755    
O78      O      0.018210000000     0.371110000000     0.495540000000    -0.449495   
O79      O      0.019770000000     0.329430000000     0.560980000000    -0.447977   
O80      O      0.019070000000     0.327980000000     0.433250000000    -0.449635   


