data_structure

_audit_creation_method RASPA-1.0
_audit_creation_date 2023-5-23
_audit_author_name 'Poobodin Mano'

_cell_length_a    29.964
_cell_length_b    29.964
_cell_length_c    44.855
_cell_angle_alpha 89.9995
_cell_angle_beta  90.001
_cell_angle_gamma 120
_cell_volume      34877.2

_symmetry_cell_setting          triclinic
_symmetry_space_group_name_Hall 'P 1'
_symmetry_space_group_name_H-M  'P 1'
_symmetry_Int_Tables_number     1

_symmetry_equiv_pos_as_xyz 'x,y,z'

loop_
_atom_site_label
_atom_site_type_symbol
_atom_site_fract_x
_atom_site_fract_y
_atom_site_fract_z
_atom_site_charge
C1       C      0.990250000000     0.993750000000     0.270800000000     0.433367   
C2       C      0.990310000000     0.993650000000     0.384830000000     0.433357   
C3       C      0.075600000000     0.079020000000     0.327820000000     0.434689   
C4       C      0.904950000000     0.908390000000     0.327810000000     0.434639   
C5       C      0.904950000000     0.408400000000     0.327870000000     0.434615   
C6       C      0.075600000000     0.579030000000     0.327880000000     0.434754   
C7       C      0.990280000000     0.493690000000     0.384890000000     0.433964   
C8       C      0.990270000000     0.493730000000     0.270860000000     0.433948   
C9       C      0.575570000000     0.079060000000     0.327800000000     0.434903   
C10      C      0.404940000000     0.908410000000     0.327780000000     0.434784   
C11      C      0.490260000000     0.993750000000     0.270770000000     0.433886   
C12      C      0.490250000000     0.993700000000     0.384800000000     0.433866   
C13      C      0.404960000000     0.408380000000     0.327730000000     0.434771   
C14      C      0.575590000000     0.579030000000     0.327750000000     0.434945   
C15      C      0.490300000000     0.493700000000     0.270730000000     0.434576   
C16      C      0.490240000000     0.493700000000     0.384750000000     0.434631   
C17      C      0.075260000000     0.993550000000     0.994500000000     0.433835   
C18      C      0.904620000000     0.993560000000     0.994460000000     0.433816   
C19      C      0.989940000000     0.993490000000     0.937470000000     0.433253   
C20      C      0.989950000000     0.993620000000     0.051500000000     0.433155   
C21      C      0.075450000000     0.493430000000     0.994560000000     0.434403   
C22      C      0.904820000000     0.493450000000     0.994520000000     0.434536   
C23      C      0.990140000000     0.493510000000     0.051560000000     0.433664   
C24      C      0.990130000000     0.493370000000     0.937530000000     0.43379    
C25      C      0.575270000000     0.993580000000     0.994430000000     0.433858   
C26      C      0.404630000000     0.993580000000     0.994480000000     0.433764   
C27      C      0.489890000000     0.993530000000     0.937440000000     0.433807   
C28      C      0.490010000000     0.993620000000     0.051470000000     0.433576   
C29      C      0.404820000000     0.493450000000     0.994430000000     0.434309   
C30      C      0.575470000000     0.493480000000     0.994390000000     0.43443    
C31      C      0.490080000000     0.493420000000     0.937390000000     0.434428   
C32      C      0.490200000000     0.493510000000     0.051420000000     0.434249   
C33      C      0.990090000000     0.993240000000     0.718160000000     0.433423   
C34      C      0.990170000000     0.993250000000     0.604130000000     0.433204   
C35      C      0.990130000000     0.078560000000     0.661140000000     0.43423    
C36      C      0.990140000000     0.907920000000     0.661160000000     0.434146   
C37      C      0.990150000000     0.407930000000     0.661180000000     0.434351   
C38      C      0.990160000000     0.578570000000     0.661240000000     0.434191   
C39      C      0.990150000000     0.493200000000     0.718230000000     0.433837   
C40      C      0.990170000000     0.493310000000     0.604200000000     0.433975   
C41      C      0.489980000000     0.078750000000     0.661110000000     0.434723   
C42      C      0.489980000000     0.908100000000     0.661130000000     0.434827   
C43      C      0.489940000000     0.993410000000     0.718130000000     0.434      
C44      C      0.490030000000     0.993440000000     0.604100000000     0.433972   
C45      C      0.490000000000     0.408110000000     0.661050000000     0.434765   
C46      C      0.489990000000     0.578750000000     0.661090000000     0.43476    
C47      C      0.490030000000     0.493480000000     0.604060000000     0.434688   
C48      C      0.489980000000     0.493390000000     0.718090000000     0.43445    
C49      C      0.534860000000     0.716700000000     0.654400000000    -0.0863382  
C50      C      0.489980000000     0.718450000000     0.661110000000     0.0347224  
C51      C      0.445110000000     0.671810000000     0.667820000000    -0.0863122  
C52      C      0.445610000000     0.625470000000     0.667260000000     0.0724218  
C53      C      0.534360000000     0.669850000000     0.654950000000     0.0724607  
C54      C      0.489980000000     0.768390000000     0.661120000000     0.0347189  
C55      C      0.534850000000     0.815020000000     0.667850000000    -0.086333   
C56      C      0.534340000000     0.861370000000     0.667300000000     0.0723951  
C57      C      0.445610000000     0.817000000000     0.654950000000     0.0724331  
C58      C      0.445110000000     0.770150000000     0.654400000000    -0.0863258  
C59      C      0.534870000000     0.315040000000     0.667780000000    -0.0862915  
C60      C      0.490000000000     0.268410000000     0.661070000000     0.0347373  
C61      C      0.445130000000     0.270170000000     0.654340000000    -0.0862976  
C62      C      0.445630000000     0.317020000000     0.654880000000     0.0724531  
C63      C      0.534370000000     0.361390000000     0.667230000000     0.0724378  
C64      C      0.489990000000     0.218460000000     0.661070000000     0.0347226  
C65      C      0.534870000000     0.216690000000     0.654380000000    -0.0862956  
C66      C      0.534360000000     0.169840000000     0.654940000000     0.0725029  
C67      C      0.445610000000     0.125480000000     0.667250000000     0.0724355  
C68      C      0.445110000000     0.171830000000     0.667790000000    -0.0862951  
C69      C      0.945280000000     0.769970000000     0.654480000000    -0.0862013  
C70      C      0.990150000000     0.768220000000     0.661210000000     0.0342667  
C71      C      0.035020000000     0.814860000000     0.667930000000    -0.0858453  
C72      C      0.034510000000     0.861200000000     0.667360000000     0.0726972  
C73      C      0.945770000000     0.816820000000     0.655010000000     0.0722376  
C74      C      0.990160000000     0.718280000000     0.661230000000     0.034295   
C75      C      0.945280000000     0.671640000000     0.667940000000    -0.0862716  
C76      C      0.945790000000     0.625300000000     0.667400000000     0.0723377  
C77      C      0.034530000000     0.669670000000     0.655080000000     0.0727217  
C78      C      0.035030000000     0.716520000000     0.654530000000    -0.0858213  
C79      C      0.035010000000     0.216510000000     0.654430000000    -0.0858848  
C80      C      0.990130000000     0.218260000000     0.661140000000     0.0343398  
C81      C      0.945250000000     0.171630000000     0.667850000000    -0.0862548  
C82      C      0.945750000000     0.125280000000     0.667290000000     0.0723197  
C83      C      0.034500000000     0.169660000000     0.654980000000     0.0727938  
C84      C      0.990140000000     0.268210000000     0.661150000000     0.0342803  
C85      C      0.035010000000     0.314840000000     0.667870000000    -0.085815   
C86      C      0.034510000000     0.361190000000     0.667330000000     0.0727172  
C87      C      0.945770000000     0.316830000000     0.654990000000     0.0722976  
C88      C      0.945270000000     0.269980000000     0.654440000000    -0.0862095  
C89      C      0.536020000000     0.521280000000     0.795300000000    -0.0871974  
C90      C      0.489980000000     0.493360000000     0.811210000000     0.0349555  
C91      C      0.443950000000     0.465430000000     0.795300000000    -0.0871565  
C92      C      0.444590000000     0.466130000000     0.764160000000     0.0723183  
C93      C      0.535370000000     0.520610000000     0.764160000000     0.0723439  
C94      C      0.489990000000     0.493370000000     0.844270000000     0.0349782  
C95      C      0.462090000000     0.447340000000     0.860190000000    -0.0872231  
C96      C      0.462800000000     0.448000000000     0.891330000000     0.0723063  
C97      C      0.517270000000     0.538780000000     0.891310000000     0.0723128  
C98      C      0.517920000000     0.539410000000     0.860170000000    -0.0872188  
C99      C      0.535920000000     0.021360000000     0.795350000000    -0.0866843  
C100     C      0.489880000000     0.993440000000     0.811260000000     0.0344796  
C101     C      0.443850000000     0.965510000000     0.795330000000    -0.0870826  
C102     C      0.444520000000     0.966180000000     0.764200000000     0.0722267  
C103     C      0.535290000000     0.020660000000     0.764220000000     0.072597   
C104     C      0.489860000000     0.993460000000     0.844310000000     0.0344886  
C105     C      0.517780000000     0.039510000000     0.860220000000    -0.0867023  
C106     C      0.517110000000     0.038890000000     0.891350000000     0.0725524  
C107     C      0.462630000000     0.948110000000     0.891370000000     0.0721462  
C108     C      0.461940000000     0.947440000000     0.860240000000    -0.0871077  
C109     C      0.811760000000     0.538340000000     0.987730000000    -0.0861972  
C110     C      0.765120000000     0.493470000000     0.994450000000     0.0327179  
C111     C      0.766870000000     0.448600000000     0.001190000000    -0.0839276  
C112     C      0.813720000000     0.449100000000     0.000670000000     0.0739994  
C113     C      0.858100000000     0.537830000000     0.988310000000     0.0718405  
C114     C      0.715180000000     0.493480000000     0.994420000000     0.0327043  
C115     C      0.713420000000     0.538360000000     0.001110000000    -0.0839047  
C116     C      0.666570000000     0.537860000000     0.000540000000     0.0739939  
C117     C      0.622200000000     0.449100000000     0.988250000000     0.0718539  
C118     C      0.668550000000     0.448600000000     0.987710000000    -0.0861448  
C119     C      0.168510000000     0.448540000000     0.987850000000    -0.0861264  
C120     C      0.215150000000     0.493430000000     0.994530000000     0.0327495  
C121     C      0.213400000000     0.538310000000     0.001240000000    -0.0839397  
C122     C      0.166550000000     0.537800000000     0.000700000000     0.0740868  
C123     C      0.122160000000     0.449040000000     0.988410000000     0.0718506  
C124     C      0.265100000000     0.493430000000     0.994500000000     0.0326941  
C125     C      0.266880000000     0.448570000000     0.001220000000    -0.0838425  
C126     C      0.313730000000     0.449070000000     0.000640000000     0.0739407  
C127     C      0.358070000000     0.537810000000     0.988290000000     0.0718699  
C128     C      0.311720000000     0.538300000000     0.987760000000    -0.0861135  
C129     C      0.018060000000     0.539300000000     0.860310000000    -0.0866974  
C130     C      0.990130000000     0.493250000000     0.844410000000     0.0345127  
C131     C      0.962200000000     0.447240000000     0.860340000000    -0.0871459  
C132     C      0.962890000000     0.447920000000     0.891470000000     0.0721556  
C133     C      0.017370000000     0.538700000000     0.891440000000     0.0726006  
C134     C      0.990130000000     0.493210000000     0.811350000000     0.0345031  
C135     C      0.944100000000     0.465280000000     0.795430000000    -0.0871209  
C136     C      0.944750000000     0.465960000000     0.764300000000     0.0722443  
C137     C      0.035530000000     0.520430000000     0.764300000000     0.0725993  
C138     C      0.036170000000     0.521130000000     0.795440000000    -0.0866722  
C139     C      0.668340000000     0.948700000000     0.987720000000    -0.0860734  
C140     C      0.714970000000     0.993570000000     0.994420000000     0.0322755  
C141     C      0.713220000000     0.038460000000     0.001120000000    -0.0834398  
C142     C      0.666380000000     0.037960000000     0.000570000000     0.0742753  
C143     C      0.621990000000     0.949200000000     0.988270000000     0.0717203  
C144     C      0.764920000000     0.993570000000     0.994430000000     0.0322876  
C145     C      0.766670000000     0.948700000000     0.001160000000    -0.083865   
C146     C      0.813520000000     0.949200000000     0.000620000000     0.0738768  
C147     C      0.857900000000     0.037930000000     0.988270000000     0.072101   
C148     C      0.811550000000     0.038430000000     0.987710000000    -0.0856645  
C149     C      0.311540000000     0.038430000000     0.987770000000    -0.0856573  
C150     C      0.264920000000     0.993570000000     0.994500000000     0.0322941  
C151     C      0.266690000000     0.948700000000     0.001230000000    -0.0838399  
C152     C      0.313540000000     0.949210000000     0.000670000000     0.0739374  
C153     C      0.357890000000     0.037940000000     0.988320000000     0.0721175  
C154     C      0.214970000000     0.993560000000     0.994510000000     0.0322875  
C155     C      0.213210000000     0.038440000000     0.001210000000    -0.0834404  
C156     C      0.166360000000     0.037930000000     0.000660000000     0.0743085  
C157     C      0.121980000000     0.949180000000     0.988360000000     0.0717921  
C158     C      0.168330000000     0.948680000000     0.987810000000    -0.0860387  
C159     C      0.962060000000     0.947360000000     0.860280000000    -0.0870004  
C160     C      0.989990000000     0.993370000000     0.844340000000     0.0340445  
C161     C      0.017900000000     0.039430000000     0.860240000000    -0.0862192  
C162     C      0.017200000000     0.038820000000     0.891380000000     0.0728334  
C163     C      0.962720000000     0.948040000000     0.891410000000     0.0719972  
C164     C      0.990020000000     0.993330000000     0.811290000000     0.0340577  
C165     C      0.036070000000     0.021230000000     0.795380000000    -0.0861924  
C166     C      0.035450000000     0.020510000000     0.764250000000     0.0728662  
C167     C      0.944670000000     0.966030000000     0.764230000000     0.0720441  
C168     C      0.944000000000     0.965380000000     0.795360000000    -0.0870201  
C169     C      0.462230000000     0.511730000000     0.461960000000    -0.0871151  
C170     C      0.490140000000     0.493610000000     0.477880000000     0.034921   
C171     C      0.518080000000     0.475520000000     0.461970000000    -0.0871102  
C172     C      0.517440000000     0.475510000000     0.430830000000     0.0722559  
C173     C      0.462950000000     0.511810000000     0.430820000000     0.0723088  
C174     C      0.490100000000     0.493580000000     0.510940000000     0.0350174  
C175     C      0.536120000000     0.511680000000     0.526860000000    -0.0871984  
C176     C      0.535450000000     0.511680000000     0.558000000000     0.0723646  
C177     C      0.444670000000     0.475380000000     0.557970000000     0.0723475  
C178     C      0.444060000000     0.475450000000     0.526840000000    -0.0872033  
C179     C      0.472160000000     0.447560000000     0.128640000000    -0.0870516  
C180     C      0.490270000000     0.493600000000     0.144540000000     0.0350227  
C181     C      0.508370000000     0.539620000000     0.128610000000    -0.0870943  
C182     C      0.508390000000     0.538950000000     0.097480000000     0.0724683  
C183     C      0.472100000000     0.448170000000     0.097510000000     0.0724933  
C184     C      0.490290000000     0.493630000000     0.177600000000     0.0349623  
C185     C      0.472180000000     0.521570000000     0.193510000000    -0.0871103  
C186     C      0.472150000000     0.520910000000     0.224640000000     0.0723543  
C187     C      0.508460000000     0.466440000000     0.224660000000     0.0723521  
C188     C      0.508410000000     0.465730000000     0.193530000000    -0.0871073  
C189     C      0.462250000000     0.011720000000     0.462010000000    -0.0867262  
C190     C      0.490160000000     0.993580000000     0.477920000000     0.0345946  
C191     C      0.518100000000     0.975500000000     0.462010000000    -0.0872266  
C192     C      0.517450000000     0.975510000000     0.430870000000     0.0722775  
C193     C      0.462970000000     0.011800000000     0.430880000000     0.0726322  
C194     C      0.490120000000     0.993530000000     0.510980000000     0.0344839  
C195     C      0.444070000000     0.975400000000     0.526880000000    -0.087066   
C196     C      0.444680000000     0.975330000000     0.558020000000     0.072141   
C197     C      0.535460000000     0.011630000000     0.558040000000     0.0726487  
C198     C      0.536140000000     0.011620000000     0.526910000000    -0.0866704  
C199     C      0.472090000000     0.021660000000     0.193570000000    -0.0866584  
C200     C      0.490190000000     0.993730000000     0.177650000000     0.0345647  
C201     C      0.508320000000     0.965820000000     0.193560000000    -0.0870879  
C202     C      0.508390000000     0.966520000000     0.224690000000     0.0722921  
C203     C      0.472080000000     0.020990000000     0.224700000000     0.0726112  
C204     C      0.490140000000     0.993700000000     0.144590000000     0.0345888  
C205     C      0.472010000000     0.947650000000     0.128690000000    -0.0870525  
C206     C      0.471930000000     0.948270000000     0.097550000000     0.0723351  
C207     C      0.508220000000     0.039050000000     0.097530000000     0.0727914  
C208     C      0.508230000000     0.039720000000     0.128660000000    -0.0866068  
C209     C      0.018170000000     0.475470000000     0.462090000000    -0.0866507  
C210     C      0.990230000000     0.493560000000     0.478020000000     0.0344749  
C211     C      0.962330000000     0.511700000000     0.462110000000    -0.0870681  
C212     C      0.963030000000     0.511790000000     0.430980000000     0.0722103  
C213     C      0.017500000000     0.475480000000     0.430960000000     0.072577   
C214     C      0.990210000000     0.493500000000     0.511070000000     0.034538   
C215     C      0.944170000000     0.475360000000     0.526980000000    -0.087106   
C216     C      0.944800000000     0.475250000000     0.558120000000     0.0721968  
C217     C      0.035580000000     0.511540000000     0.558130000000     0.0726097  
C218     C      0.036240000000     0.511570000000     0.526990000000    -0.0867048  
C219     C      0.767000000000     0.315340000000     0.321150000000    -0.0863226  
C220     C      0.765230000000     0.268710000000     0.327850000000     0.0347689  
C221     C      0.811860000000     0.270450000000     0.334560000000    -0.0863501  
C222     C      0.858210000000     0.317300000000     0.334020000000     0.0724483  
C223     C      0.813850000000     0.361690000000     0.321710000000     0.0724291  
C224     C      0.715280000000     0.218760000000     0.327830000000     0.0347145  
C225     C      0.668650000000     0.217000000000     0.334540000000    -0.0862721  
C226     C      0.622300000000     0.170150000000     0.333980000000     0.0724499  
C227     C      0.666680000000     0.125790000000     0.321640000000     0.0724602  
C228     C      0.713520000000     0.172130000000     0.321110000000    -0.0862481  
C229     C      0.168680000000     0.716990000000     0.334560000000    -0.0862969  
C230     C      0.215300000000     0.718740000000     0.327840000000     0.034757   
C231     C      0.213540000000     0.672110000000     0.321130000000    -0.0863033  
C232     C      0.166690000000     0.625760000000     0.321690000000     0.0724455  
C233     C      0.122330000000     0.670130000000     0.334030000000     0.0725153  
C234     C      0.265250000000     0.768690000000     0.327820000000     0.0347409  
C235     C      0.266990000000     0.815320000000     0.321100000000    -0.0863244  
C236     C      0.313840000000     0.861670000000     0.321630000000     0.0724273  
C237     C      0.358230000000     0.817310000000     0.333950000000     0.072462   
C238     C      0.311890000000     0.770460000000     0.334520000000    -0.0863527  
C239     C      0.972110000000     0.521620000000     0.193650000000    -0.0871118  
C240     C      0.990200000000     0.493670000000     0.177740000000     0.0345424  
C241     C      0.008330000000     0.465760000000     0.193660000000    -0.0866292  
C242     C      0.008390000000     0.466470000000     0.224790000000     0.0726633  
C243     C      0.972100000000     0.520960000000     0.224790000000     0.0722103  
C244     C      0.990170000000     0.493630000000     0.144680000000     0.0346212  
C245     C      0.008270000000     0.539650000000     0.128750000000    -0.0866458  
C246     C      0.008300000000     0.538960000000     0.097620000000     0.0727792  
C247     C      0.971990000000     0.448180000000     0.097650000000     0.0723277  
C248     C      0.972040000000     0.447580000000     0.128790000000    -0.0870535  
C249     C      0.962360000000     0.011630000000     0.462060000000    -0.0866396  
C250     C      0.990270000000     0.993480000000     0.477950000000     0.0341192  
C251     C      0.018200000000     0.975400000000     0.462020000000    -0.0866231  
C252     C      0.017540000000     0.975430000000     0.430880000000     0.0724361  
C253     C      0.963060000000     0.011730000000     0.430920000000     0.072533   
C254     C      0.990240000000     0.993400000000     0.511010000000     0.0340532  
C255     C      0.036260000000     0.011480000000     0.526940000000    -0.0861791  
C256     C      0.035590000000     0.011460000000     0.558070000000     0.072979   
C257     C      0.944810000000     0.975160000000     0.558050000000     0.071993   
C258     C      0.944200000000     0.975260000000     0.526920000000    -0.086968   
C259     C      0.811880000000     0.770440000000     0.334490000000    -0.0863632  
C260     C      0.765250000000     0.768690000000     0.327790000000     0.0347551  
C261     C      0.767000000000     0.815320000000     0.321090000000    -0.0863829  
C262     C      0.813860000000     0.861670000000     0.321650000000     0.0724629  
C263     C      0.858230000000     0.817290000000     0.333950000000     0.0724111  
C264     C      0.715300000000     0.718740000000     0.327770000000     0.0347068  
C265     C      0.713540000000     0.672110000000     0.321050000000    -0.0863173  
C266     C      0.666700000000     0.625760000000     0.321590000000     0.0724343  
C267     C      0.622320000000     0.670130000000     0.333920000000     0.072416   
C268     C      0.668660000000     0.716970000000     0.334480000000    -0.0863081  
C269     C      0.267010000000     0.315300000000     0.321040000000    -0.0863158  
C270     C      0.265260000000     0.268670000000     0.327760000000     0.0347614  
C271     C      0.311890000000     0.270430000000     0.334470000000    -0.0863081  
C272     C      0.358240000000     0.317280000000     0.333910000000     0.0724193  
C273     C      0.313860000000     0.361650000000     0.321580000000     0.0724676  
C274     C      0.215310000000     0.218730000000     0.327780000000     0.0347658  
C275     C      0.168690000000     0.216970000000     0.334510000000    -0.0862985  
C276     C      0.122340000000     0.170120000000     0.333980000000     0.072528   
C277     C      0.166700000000     0.125750000000     0.321630000000     0.0724921  
C278     C      0.213550000000     0.172090000000     0.321070000000    -0.0862906  
C279     C      0.008140000000     0.039730000000     0.128690000000    -0.0861252  
C280     C      0.990060000000     0.993710000000     0.144620000000     0.0341385  
C281     C      0.971920000000     0.947660000000     0.128720000000    -0.0869319  
C282     C      0.971830000000     0.948270000000     0.097580000000     0.0721555  
C283     C      0.008140000000     0.039050000000     0.097560000000     0.0730509  
C284     C      0.990120000000     0.993740000000     0.177680000000     0.0341309  
C285     C      0.008260000000     0.965820000000     0.193580000000    -0.0865484  
C286     C      0.008350000000     0.966520000000     0.224710000000     0.0725258  
C287     C      0.972050000000     0.021000000000     0.224740000000     0.0725162  
C288     C      0.972040000000     0.021670000000     0.193610000000    -0.0866358  
H1       H      0.409650000000     0.670740000000     0.673910000000     0.050646   
H2       H      0.410000000000     0.590480000000     0.672570000000     0.0262135  
H3       H      0.569990000000     0.670500000000     0.649630000000     0.0261802  
H4       H      0.570320000000     0.751090000000     0.648320000000     0.050636   
H5       H      0.570300000000     0.816090000000     0.673950000000     0.050624   
H6       H      0.569950000000     0.896350000000     0.672630000000     0.0261397  
H7       H      0.409990000000     0.816370000000     0.649630000000     0.0262065  
H8       H      0.409660000000     0.735770000000     0.648290000000     0.0506526  
H9       H      0.409680000000     0.235780000000     0.648240000000     0.0506771  
H10      H      0.410020000000     0.316390000000     0.649560000000     0.0262189  
H11      H      0.569990000000     0.396360000000     0.672550000000     0.0261948  
H12      H      0.570320000000     0.316100000000     0.673890000000     0.0506411  
H13      H      0.570330000000     0.251080000000     0.648280000000     0.0506464  
H14      H      0.569980000000     0.170470000000     0.649630000000     0.0262068  
H15      H      0.409990000000     0.090500000000     0.672560000000     0.0262919  
H16      H      0.409660000000     0.170770000000     0.673870000000     0.0507015  
H17      H      0.070470000000     0.815930000000     0.674040000000     0.0505835  
H18      H      0.070120000000     0.896190000000     0.672680000000     0.0261401  
H19      H      0.910160000000     0.816180000000     0.649680000000     0.026215   
H20      H      0.909830000000     0.735580000000     0.648380000000     0.0505907  
H21      H      0.909830000000     0.670580000000     0.674030000000     0.0506162  
H22      H      0.910170000000     0.590320000000     0.672710000000     0.0262088  
H23      H      0.070150000000     0.670310000000     0.649770000000     0.0261944  
H24      H      0.070490000000     0.750910000000     0.648430000000     0.0505817  
H25      H      0.909800000000     0.170560000000     0.673940000000     0.050664   
H26      H      0.910130000000     0.090300000000     0.672600000000     0.0262962  
H27      H      0.070120000000     0.170290000000     0.649670000000     0.0262157  
H28      H      0.070460000000     0.250900000000     0.648340000000     0.0506457  
H29      H      0.070460000000     0.315900000000     0.673970000000     0.050611   
H30      H      0.070130000000     0.396160000000     0.672660000000     0.0261988  
H31      H      0.910160000000     0.316200000000     0.649680000000     0.0262254  
H32      H      0.909820000000     0.235600000000     0.648330000000     0.050626   
H33      H      0.407490000000     0.443690000000     0.806830000000     0.0519672  
H34      H      0.408030000000     0.444150000000     0.752730000000     0.0266062  
H35      H      0.571930000000     0.542590000000     0.752730000000     0.0265867  
H36      H      0.572480000000     0.543020000000     0.806820000000     0.0519693  
H37      H      0.440350000000     0.410880000000     0.848670000000     0.0519781  
H38      H      0.440840000000     0.411440000000     0.902770000000     0.0265058  
H39      H      0.539250000000     0.575350000000     0.902730000000     0.0264897  
H40      H      0.539640000000     0.575870000000     0.848640000000     0.0519444  
H41      H      0.407380000000     0.943780000000     0.806860000000     0.0518867  
H42      H      0.407960000000     0.944200000000     0.752760000000     0.0265922  
H43      H      0.571860000000     0.042630000000     0.752790000000     0.0266261  
H44      H      0.572370000000     0.043090000000     0.806890000000     0.0519437  
H45      H      0.539510000000     0.075960000000     0.848680000000     0.0519061  
H46      H      0.539080000000     0.075460000000     0.902780000000     0.0265169  
H47      H      0.440660000000     0.911560000000     0.902820000000     0.0265376  
H48      H      0.440200000000     0.910970000000     0.848720000000     0.0519013  
H49      H      0.732480000000     0.413160000000     0.007300000000     0.0509314  
H50      H      0.813080000000     0.413490000000     0.006010000000     0.0266342  
H51      H      0.893090000000     0.573440000000     0.982980000000     0.0259878  
H52      H      0.812830000000     0.573780000000     0.981610000000     0.0500891  
H53      H      0.747810000000     0.573820000000     0.007200000000     0.0508967  
H54      H      0.667210000000     0.573480000000     0.005840000000     0.0266241  
H55      H      0.587220000000     0.413480000000     0.982930000000     0.0260648  
H56      H      0.667480000000     0.413140000000     0.981630000000     0.0501076  
H57      H      0.247800000000     0.573770000000     0.007320000000     0.0509381  
H58      H      0.167190000000     0.573420000000     0.006010000000     0.0266326  
H59      H      0.087180000000     0.413420000000     0.983110000000     0.0261467  
H60      H      0.167440000000     0.413090000000     0.981750000000     0.0501505  
H61      H      0.232500000000     0.413120000000     0.007340000000     0.0509344  
H62      H      0.313110000000     0.413470000000     0.005960000000     0.0266651  
H63      H      0.393040000000     0.573420000000     0.982950000000     0.0260585  
H64      H      0.312770000000     0.573750000000     0.981660000000     0.050089   
H65      H      0.940470000000     0.410770000000     0.848820000000     0.051894   
H66      H      0.940910000000     0.411370000000     0.902920000000     0.026508   
H67      H      0.039350000000     0.575280000000     0.902860000000     0.0265213  
H68      H      0.039790000000     0.575750000000     0.848760000000     0.0519136  
H69      H      0.907640000000     0.443560000000     0.806960000000     0.0519284  
H70      H      0.908190000000     0.443980000000     0.752870000000     0.0265966  
H71      H      0.072100000000     0.542400000000     0.752870000000     0.0265989  
H72      H      0.072630000000     0.542860000000     0.806970000000     0.0519176  
H73      H      0.747620000000     0.073910000000     0.007210000000     0.0508695  
H74      H      0.667010000000     0.073580000000     0.005880000000     0.0266352  
H75      H      0.587010000000     0.913580000000     0.982970000000     0.0260684  
H76      H      0.667270000000     0.913240000000     0.981640000000     0.0500569  
H77      H      0.732280000000     0.913260000000     0.007270000000     0.0508821  
H78      H      0.812880000000     0.913580000000     0.005960000000     0.0266369  
H79      H      0.892880000000     0.073540000000     0.982940000000     0.0260018  
H80      H      0.812620000000     0.073880000000     0.981590000000     0.0500251  
H81      H      0.232300000000     0.913250000000     0.007340000000     0.0508991  
H82      H      0.312910000000     0.913590000000     0.006000000000     0.0266512  
H83      H      0.392870000000     0.073550000000     0.982980000000     0.0260746  
H84      H      0.312600000000     0.073880000000     0.981670000000     0.0500674  
H85      H      0.247600000000     0.073900000000     0.007290000000     0.0509038  
H86      H      0.166990000000     0.073550000000     0.005960000000     0.0266557  
H87      H      0.087000000000     0.913550000000     0.983050000000     0.0261362  
H88      H      0.167270000000     0.913220000000     0.981730000000     0.0500846  
H89      H      0.039640000000     0.075870000000     0.848700000000     0.0519064  
H90      H      0.039160000000     0.075400000000     0.902800000000     0.0265359  
H91      H      0.940740000000     0.911490000000     0.902860000000     0.0265173  
H92      H      0.940330000000     0.910880000000     0.848760000000     0.0518108  
H93      H      0.072520000000     0.042980000000     0.806920000000     0.0519053  
H94      H      0.072020000000     0.042480000000     0.752820000000     0.0266296  
H95      H      0.908120000000     0.944050000000     0.752790000000     0.0266043  
H96      H      0.907530000000     0.943660000000     0.806880000000     0.05185    
H97      H      0.539800000000     0.460780000000     0.473500000000     0.0519789  
H98      H      0.539430000000     0.460940000000     0.419410000000     0.0266271  
H99      H      0.440990000000     0.526410000000     0.419380000000     0.0266219  
H100     H      0.440480000000     0.526450000000     0.473480000000     0.0519715  
H101     H      0.572590000000     0.526420000000     0.515340000000     0.0519891  
H102     H      0.572010000000     0.526260000000     0.569440000000     0.0265962  
H103     H      0.408100000000     0.460770000000     0.569400000000     0.02662    
H104     H      0.407610000000     0.460740000000     0.515300000000     0.0520128  
H105     H      0.523100000000     0.576090000000     0.140130000000     0.0520965  
H106     H      0.522970000000     0.575500000000     0.086040000000     0.0268724  
H107     H      0.457500000000     0.411590000000     0.086090000000     0.0268844  
H108     H      0.457440000000     0.411100000000     0.140190000000     0.0520836  
H109     H      0.457440000000     0.543290000000     0.181970000000     0.052057   
H110     H      0.457560000000     0.542890000000     0.236070000000     0.0266515  
H111     H      0.523050000000     0.444480000000     0.236100000000     0.0266462  
H112     H      0.523140000000     0.443990000000     0.182000000000     0.0520521  
H113     H      0.539820000000     0.960760000000     0.473530000000     0.0519158  
H114     H      0.539440000000     0.960930000000     0.419440000000     0.0265478  
H115     H      0.441010000000     0.026410000000     0.419450000000     0.0266447  
H116     H      0.440510000000     0.026430000000     0.473540000000     0.052055   
H117     H      0.407620000000     0.960690000000     0.515340000000     0.0518731  
H118     H      0.408110000000     0.960720000000     0.569440000000     0.0266043  
H119     H      0.572010000000     0.026200000000     0.569490000000     0.0266395  
H120     H      0.572610000000     0.026370000000     0.515390000000     0.0520202  
H121     H      0.523040000000     0.944080000000     0.182020000000     0.051995   
H122     H      0.522990000000     0.944550000000     0.236120000000     0.0266105  
H123     H      0.457500000000     0.042960000000     0.236140000000     0.0266751  
H124     H      0.457350000000     0.043380000000     0.182040000000     0.0520689  
H125     H      0.457300000000     0.911210000000     0.140220000000     0.0521027  
H126     H      0.457320000000     0.911700000000     0.086130000000     0.0268874  
H127     H      0.522790000000     0.075610000000     0.086090000000     0.0268606  
H128     H      0.522970000000     0.076190000000     0.140190000000     0.0520532  
H129     H      0.940590000000     0.526410000000     0.473660000000     0.0519004  
H130     H      0.941060000000     0.526400000000     0.419560000000     0.026589   
H131     H      0.039480000000     0.460910000000     0.419510000000     0.0266581  
H132     H      0.039890000000     0.460720000000     0.473610000000     0.0519793  
H133     H      0.907720000000     0.460650000000     0.515450000000     0.0519675  
H134     H      0.908230000000     0.460640000000     0.569550000000     0.0266281  
H135     H      0.072140000000     0.526110000000     0.569560000000     0.0266083  
H136     H      0.072700000000     0.526320000000     0.515470000000     0.0519734  
H137     H      0.812920000000     0.236060000000     0.340650000000     0.0506649  
H138     H      0.893190000000     0.316660000000     0.339340000000     0.0261565  
H139     H      0.813220000000     0.396680000000     0.316400000000     0.026218   
H140     H      0.732620000000     0.316420000000     0.315050000000     0.0506686  
H141     H      0.667590000000     0.251390000000     0.340650000000     0.0506452  
H142     H      0.587320000000     0.170780000000     0.339300000000     0.0262223  
H143     H      0.667310000000     0.090810000000     0.316320000000     0.0262947  
H144     H      0.747920000000     0.171070000000     0.315010000000     0.0506537  
H145     H      0.247920000000     0.671040000000     0.315020000000     0.0506733  
H146     H      0.167320000000     0.590780000000     0.316370000000     0.0262381  
H147     H      0.087350000000     0.670770000000     0.339360000000     0.026274   
H148     H      0.167610000000     0.751380000000     0.340660000000     0.0506622  
H149     H      0.232600000000     0.816380000000     0.315010000000     0.0506718  
H150     H      0.313200000000     0.896650000000     0.316310000000     0.0261581  
H151     H      0.393220000000     0.816680000000     0.339260000000     0.0261989  
H152     H      0.312960000000     0.736080000000     0.340620000000     0.0506736  
H153     H      0.023040000000     0.444010000000     0.182130000000     0.0521074  
H154     H      0.022980000000     0.444500000000     0.236220000000     0.0266794  
H155     H      0.957520000000     0.542940000000     0.236220000000     0.0266101  
H156     H      0.957380000000     0.543340000000     0.182120000000     0.0519791  
H157     H      0.023010000000     0.576120000000     0.140260000000     0.0521617  
H158     H      0.022890000000     0.575510000000     0.086170000000     0.0269018  
H159     H      0.957390000000     0.411610000000     0.086240000000     0.0268529  
H160     H      0.957310000000     0.411130000000     0.140330000000     0.052009   
H161     H      0.039930000000     0.960650000000     0.473530000000     0.0518628  
H162     H      0.039520000000     0.960860000000     0.419440000000     0.0266016  
H163     H      0.941090000000     0.026350000000     0.419510000000     0.0266138  
H164     H      0.940620000000     0.026330000000     0.473600000000     0.0519801  
H165     H      0.072730000000     0.026230000000     0.515410000000     0.051973   
H166     H      0.072150000000     0.026030000000     0.569510000000     0.0266195  
H167     H      0.908240000000     0.960540000000     0.569470000000     0.0265989  
H168     H      0.907740000000     0.960550000000     0.515380000000     0.0518001  
H169     H      0.732620000000     0.816390000000     0.314990000000     0.0506509  
H170     H      0.813220000000     0.896660000000     0.316340000000     0.0261294  
H171     H      0.893210000000     0.816650000000     0.339270000000     0.0261339  
H172     H      0.812940000000     0.736050000000     0.340580000000     0.0506322  
H173     H      0.747930000000     0.671050000000     0.314960000000     0.0506487  
H174     H      0.667330000000     0.590780000000     0.316270000000     0.0262079  
H175     H      0.587330000000     0.670750000000     0.339240000000     0.0262052  
H176     H      0.667600000000     0.751360000000     0.340580000000     0.0506262  
H177     H      0.312960000000     0.236050000000     0.340570000000     0.0506967  
H178     H      0.393230000000     0.316650000000     0.339220000000     0.0262399  
H179     H      0.313220000000     0.396630000000     0.316260000000     0.0262255  
H180     H      0.232620000000     0.316360000000     0.314950000000     0.05071    
H181     H      0.167630000000     0.251360000000     0.340610000000     0.0507042  
H182     H      0.087360000000     0.170760000000     0.339310000000     0.0263015  
H183     H      0.167320000000     0.090760000000     0.316310000000     0.0263248  
H184     H      0.247930000000     0.171030000000     0.314950000000     0.05072    
H185     H      0.957200000000     0.911210000000     0.140260000000     0.0519429  
H186     H      0.957230000000     0.911700000000     0.086160000000     0.0268751  
H187     H      0.022710000000     0.075600000000     0.086110000000     0.0269123  
H188     H      0.022890000000     0.076200000000     0.140210000000     0.0521072  
H189     H      0.022970000000     0.944080000000     0.182030000000     0.0520245  
H190     H      0.022950000000     0.944540000000     0.236130000000     0.0266699  
H191     H      0.957480000000     0.042980000000     0.236190000000     0.0266364  
H192     H      0.957300000000     0.043400000000     0.182090000000     0.0519566  
N1       N      0.489990000000     0.624520000000     0.661100000000    -0.197918   
N2       N      0.489970000000     0.862330000000     0.661130000000    -0.197954   
N3       N      0.490000000000     0.362340000000     0.661050000000    -0.19791    
N4       N      0.489990000000     0.124520000000     0.661100000000    -0.197917   
N5       N      0.990140000000     0.862150000000     0.661180000000    -0.198037   
N6       N      0.990160000000     0.624350000000     0.661240000000    -0.198011   
N7       N      0.990130000000     0.124330000000     0.661130000000    -0.198033   
N8       N      0.990140000000     0.362150000000     0.661170000000    -0.19804    
N9       N      0.489980000000     0.493380000000     0.748690000000    -0.197651   
N10      N      0.490050000000     0.493400000000     0.906790000000    -0.19768    
N11      N      0.489910000000     0.993410000000     0.748730000000    -0.197797   
N12      N      0.489870000000     0.993510000000     0.906840000000    -0.197763   
N13      N      0.859050000000     0.493460000000     0.994500000000    -0.198887   
N14      N      0.621250000000     0.493480000000     0.994390000000    -0.198834   
N15      N      0.121220000000     0.493430000000     0.994560000000    -0.198864   
N16      N      0.359040000000     0.493450000000     0.994450000000    -0.198798   
N17      N      0.990130000000     0.493330000000     0.906930000000    -0.197785   
N18      N      0.990140000000     0.493190000000     0.748830000000    -0.197785   
N19      N      0.621050000000     0.993580000000     0.994420000000    -0.198961   
N20      N      0.858850000000     0.993560000000     0.994450000000    -0.199018   
N21      N      0.358850000000     0.993570000000     0.994490000000    -0.198984   
N22      N      0.121030000000     0.993550000000     0.994510000000    -0.199006   
N23      N      0.989950000000     0.993450000000     0.906870000000    -0.197904   
N24      N      0.990070000000     0.993260000000     0.748760000000    -0.197903   
N25      N      0.490210000000     0.493680000000     0.415350000000    -0.197627   
N26      N      0.490050000000     0.493510000000     0.573460000000    -0.197687   
N27      N      0.490230000000     0.493540000000     0.082020000000    -0.197481   
N28      N      0.490300000000     0.493680000000     0.240130000000    -0.197641   
N29      N      0.490230000000     0.993670000000     0.415400000000    -0.197805   
N30      N      0.490060000000     0.993460000000     0.573510000000    -0.197853   
N31      N      0.490250000000     0.993750000000     0.240170000000    -0.197781   
N32      N      0.490050000000     0.993650000000     0.082070000000    -0.197616   
N33      N      0.990270000000     0.493660000000     0.415490000000    -0.197774   
N34      N      0.990180000000     0.493360000000     0.573600000000    -0.197777   
N35      N      0.859170000000     0.362630000000     0.327870000000    -0.197874   
N36      N      0.621350000000     0.124830000000     0.327810000000    -0.197883   
N37      N      0.121370000000     0.624810000000     0.327870000000    -0.197876   
N38      N      0.359170000000     0.862630000000     0.327790000000    -0.197906   
N39      N      0.990250000000     0.493720000000     0.240270000000    -0.197846   
N40      N      0.990140000000     0.493550000000     0.082160000000    -0.197621   
N41      N      0.990300000000     0.993610000000     0.415430000000    -0.197926   
N42      N      0.990200000000     0.993280000000     0.573530000000    -0.197905   
N43      N      0.859180000000     0.862620000000     0.327800000000    -0.197934   
N44      N      0.621370000000     0.624800000000     0.327760000000    -0.197903   
N45      N      0.359190000000     0.362610000000     0.327740000000    -0.197894   
N46      N      0.121380000000     0.124800000000     0.327810000000    -0.197815   
N47      N      0.989970000000     0.993650000000     0.082090000000    -0.197818   
N48      N      0.990220000000     0.993760000000     0.240200000000    -0.197913   
Ni1      Ni     0.967380000000     0.016610000000     0.327830000000     1.00257    
Ni2      Ni     0.013180000000     0.970800000000     0.327800000000     1.00252    
Ni3      Ni     0.013170000000     0.470810000000     0.327870000000     1.00375    
Ni4      Ni     0.967370000000     0.516620000000     0.327890000000     1.00153    
Ni5      Ni     0.513160000000     0.970830000000     0.327780000000     1.00184    
Ni6      Ni     0.467350000000     0.016630000000     0.327790000000     1.00381    
Ni7      Ni     0.467370000000     0.516610000000     0.327730000000     1.00282    
Ni8      Ni     0.513180000000     0.470800000000     0.327750000000     1.00296    
Ni9      Ni     0.967040000000     0.947750000000     0.994500000000     0.999421   
Ni10     Ni     0.012840000000     0.039360000000     0.994460000000     1.00164    
Ni11     Ni     0.013040000000     0.539250000000     0.994520000000     1.00164    
Ni12     Ni     0.967230000000     0.447640000000     0.994560000000     0.999651   
Ni13     Ni     0.467050000000     0.947770000000     0.994460000000     0.999944   
Ni14     Ni     0.512850000000     0.039380000000     0.994440000000     1.00113    
Ni15     Ni     0.513040000000     0.539270000000     0.994390000000     1.00056    
Ni16     Ni     0.467250000000     0.447660000000     0.994420000000     1.00096    
Ni17     Ni     0.035940000000     0.016140000000     0.661160000000     1.004      
Ni18     Ni     0.944330000000     0.970340000000     0.661140000000     1.00136    
Ni19     Ni     0.035960000000     0.516150000000     0.661210000000     1.00308    
Ni20     Ni     0.944350000000     0.470350000000     0.661210000000     1.00224    
Ni21     Ni     0.444170000000     0.970520000000     0.661110000000     1.00175    
Ni22     Ni     0.535790000000     0.016320000000     0.661130000000     1.00391    
Ni23     Ni     0.444190000000     0.470530000000     0.661070000000     1.00277    
Ni24     Ni     0.535810000000     0.516340000000     0.661080000000     1.00305    
O1       O      0.970560000000     0.016830000000     0.285150000000    -0.449399   
O2       O      0.967220000000     0.013370000000     0.370520000000    -0.449293   
O3       O      0.032780000000     0.078990000000     0.329080000000    -0.449539   
O4       O      0.905000000000     0.951220000000     0.326580000000    -0.450199   
O5       O      0.947780000000     0.908420000000     0.329040000000    -0.450071   
O6       O      0.075560000000     0.036200000000     0.326550000000    -0.449576   
O7       O      0.013390000000     0.973970000000     0.370480000000    -0.449492   
O8       O      0.009950000000     0.970650000000     0.285110000000    -0.449316   
O9       O      0.947770000000     0.408430000000     0.329120000000    -0.450242   
O10      O      0.075560000000     0.536210000000     0.326630000000    -0.449975   
O11      O      0.013370000000     0.474000000000     0.370550000000    -0.449582   
O12      O      0.009960000000     0.470640000000     0.285190000000    -0.449619   
O13      O      0.970570000000     0.516820000000     0.285200000000    -0.449572   
O14      O      0.967200000000     0.513400000000     0.370570000000    -0.449838   
O15      O      0.032780000000     0.579000000000     0.329130000000    -0.449458   
O16      O      0.904990000000     0.451230000000     0.326630000000    -0.449771   
O17      O      0.575540000000     0.036240000000     0.326540000000    -0.449514   
O18      O      0.447770000000     0.908450000000     0.329020000000    -0.449849   
O19      O      0.509960000000     0.970670000000     0.285100000000    -0.449833   
O20      O      0.513340000000     0.974020000000     0.370460000000    -0.449858   
O21      O      0.467160000000     0.013410000000     0.370470000000    -0.449496   
O22      O      0.470560000000     0.016840000000     0.285110000000    -0.449485   
O23      O      0.404980000000     0.951230000000     0.326540000000    -0.450386   
O24      O      0.532750000000     0.079010000000     0.329040000000    -0.450109   
O25      O      0.405000000000     0.451200000000     0.326480000000    -0.449982   
O26      O      0.532770000000     0.578980000000     0.328990000000    -0.450106   
O27      O      0.470600000000     0.516790000000     0.285050000000    -0.449997   
O28      O      0.467170000000     0.513400000000     0.370420000000    -0.449985   
O29      O      0.513350000000     0.474010000000     0.370430000000    -0.449973   
O30      O      0.510000000000     0.470620000000     0.285070000000    -0.44998    
O31      O      0.575560000000     0.536210000000     0.326510000000    -0.449946   
O32      O      0.447790000000     0.408420000000     0.328990000000    -0.449937   
O33      O      0.032430000000     0.950770000000     0.993260000000    -0.449602   
O34      O      0.904660000000     0.950770000000     0.995730000000    -0.450142   
O35      O      0.966850000000     0.950720000000     0.951820000000    -0.449429   
O36      O      0.970250000000     0.950820000000     0.037180000000    -0.44798    
O37      O      0.009640000000     0.036390000000     0.037150000000    -0.447334   
O38      O      0.013020000000     0.036290000000     0.951780000000    -0.448922   
O39      O      0.947440000000     0.036340000000     0.993200000000    -0.449976   
O40      O      0.075220000000     0.036340000000     0.995730000000    -0.449976   
O41      O      0.075410000000     0.536220000000     0.995790000000    -0.450452   
O42      O      0.947650000000     0.536230000000     0.993260000000    -0.450514   
O43      O      0.009840000000     0.536280000000     0.037210000000    -0.447752   
O44      O      0.013220000000     0.536170000000     0.951840000000    -0.449347   
O45      O      0.967040000000     0.450600000000     0.951880000000    -0.449519   
O46      O      0.970430000000     0.450710000000     0.037250000000    -0.447999   
O47      O      0.904850000000     0.450670000000     0.995790000000    -0.450345   
O48      O      0.032620000000     0.450650000000     0.993330000000    -0.449673   
O49      O      0.532450000000     0.950790000000     0.993200000000    -0.449878   
O50      O      0.404670000000     0.950790000000     0.995730000000    -0.450144   
O51      O      0.466820000000     0.950760000000     0.951780000000    -0.44956    
O52      O      0.470300000000     0.950830000000     0.037150000000    -0.447954   
O53      O      0.509690000000     0.036400000000     0.037120000000    -0.447765   
O54      O      0.512990000000     0.036330000000     0.951760000000    -0.449278   
O55      O      0.447450000000     0.036360000000     0.993210000000    -0.449652   
O56      O      0.575230000000     0.036360000000     0.995670000000    -0.450072   
O57      O      0.447640000000     0.536240000000     0.993160000000    -0.450014   
O58      O      0.575430000000     0.536260000000     0.995630000000    -0.450398   
O59      O      0.513180000000     0.536210000000     0.951710000000    -0.449706   
O60      O      0.509880000000     0.536290000000     0.037080000000    -0.4481     
O61      O      0.470500000000     0.450720000000     0.037100000000    -0.448293   
O62      O      0.467020000000     0.450650000000     0.951740000000    -0.449715   
O63      O      0.532650000000     0.450690000000     0.993160000000    -0.450107   
O64      O      0.404870000000     0.450670000000     0.995680000000    -0.450419   
O65      O      0.032890000000     0.016330000000     0.703840000000    -0.449198   
O66      O      0.032950000000     0.012940000000     0.618480000000    -0.449059   
O67      O      0.032910000000     0.078520000000     0.659900000000    -0.449602   
O68      O      0.032920000000     0.950750000000     0.662410000000    -0.449946   
O69      O      0.947350000000     0.907960000000     0.659900000000    -0.449644   
O70      O      0.947340000000     0.035730000000     0.662380000000    -0.449404   
O71      O      0.947380000000     0.973550000000     0.618460000000    -0.449605   
O72      O      0.947320000000     0.970150000000     0.703820000000    -0.449746   
O73      O      0.032930000000     0.450750000000     0.662440000000    -0.449657   
O74      O      0.032940000000     0.578530000000     0.659990000000    -0.449578   
O75      O      0.032930000000     0.516300000000     0.703900000000    -0.449444   
O76      O      0.032950000000     0.512990000000     0.618530000000    -0.449602   
O77      O      0.947380000000     0.473600000000     0.618530000000    -0.449799   
O78      O      0.947360000000     0.470130000000     0.703890000000    -0.449697   
O79      O      0.947370000000     0.535750000000     0.662480000000    -0.449765   
O80      O      0.947370000000     0.407970000000     0.659940000000    -0.449857   
O81      O      0.447200000000     0.035920000000     0.662350000000    -0.449542   
O82      O      0.447190000000     0.908140000000     0.659870000000    -0.44982    
O83      O      0.447160000000     0.970330000000     0.703790000000    -0.449803   
O84      O      0.447230000000     0.973740000000     0.618420000000    -0.449672   
O85      O      0.532800000000     0.013130000000     0.618450000000    -0.449618   
O86      O      0.532730000000     0.016500000000     0.703810000000    -0.449674   
O87      O      0.532760000000     0.950920000000     0.662380000000    -0.450422   
O88      O      0.532770000000     0.078700000000     0.659880000000    -0.449919   
O89      O      0.447220000000     0.408150000000     0.659810000000    -0.44992    
O90      O      0.447210000000     0.535920000000     0.662330000000    -0.450003   
O91      O      0.447240000000     0.473770000000     0.618380000000    -0.449913   
O92      O      0.447200000000     0.470310000000     0.703750000000    -0.449901   
O93      O      0.532770000000     0.516490000000     0.703760000000    -0.449952   
O94      O      0.532800000000     0.513160000000     0.618400000000    -0.450097   
O95      O      0.532780000000     0.578710000000     0.659850000000    -0.449978   
O96      O      0.532790000000     0.450940000000     0.662310000000    -0.44992    


