data_structure

_audit_creation_method RASPA-1.0
_audit_creation_date 2023-6-5
_audit_author_name 'Poobodin Mano'

_cell_length_a    48.8326
_cell_length_b    48.9419
_cell_length_c    29.4068
_cell_angle_alpha 89.9784
_cell_angle_beta  90.0216
_cell_angle_gamma 119.968
_cell_volume      60884.8

_symmetry_cell_setting          triclinic
_symmetry_space_group_name_Hall 'P 1'
_symmetry_space_group_name_H-M  'P 1'
_symmetry_Int_Tables_number     1

_symmetry_equiv_pos_as_xyz 'x,y,z'

loop_
_atom_site_label
_atom_site_type_symbol
_atom_site_fract_x
_atom_site_fract_y
_atom_site_fract_z
_atom_site_charge
C1       C      0.831360000000     0.661960000000     0.569360000000     0.436385   
C2       C      0.805650000000     0.660850000000     0.738330000000     0.438148   
C3       C      0.759190000000     0.634220000000     0.634350000000     0.436454   
C4       C      0.877200000000     0.688560000000     0.674010000000     0.434619   
C5       C      0.170600000000     0.837540000000     0.723860000000     0.435266   
C6       C      0.141340000000     0.815300000000     0.892180000000     0.443454   
C7       C      0.097100000000     0.796580000000     0.786410000000     0.438005   
C8       C      0.213900000000     0.855520000000     0.832360000000     0.437816   
C9       C      0.477990000000     0.994770000000     0.048140000000     0.439832   
C10      C      0.508680000000     0.001360000000     0.880330000000     0.437749   
C11      C      0.551940000000     0.026900000000     0.986700000000     0.438626   
C12      C      0.435220000000     0.969220000000     0.940570000000     0.437287   
C13      C      0.147880000000     0.326090000000     0.388920000000     0.442766   
C14      C      0.172890000000     0.327230000000     0.219990000000     0.438066   
C15      C      0.219070000000     0.355470000000     0.324250000000     0.438258   
C16      C      0.101180000000     0.297350000000     0.285390000000     0.44144    
C17      C      0.843760000000     0.174300000000     0.055140000000     0.439567   
C18      C      0.808690000000     0.148780000000     0.221280000000     0.438874   
C19      C      0.768330000000     0.132920000000     0.111940000000     0.438075   
C20      C      0.883710000000     0.189920000000     0.164240000000     0.438789   
C21      C      0.511790000000     0.513140000000     0.365900000000     0.440274   
C22      C      0.490690000000     0.491510000000     0.534530000000     0.440524   
C23      C      0.439920000000     0.469150000000     0.431120000000     0.441272   
C24      C      0.555780000000     0.532050000000     0.476130000000     0.435457   
C25      C      0.147620000000     0.327150000000     0.720370000000     0.442007   
C26      C      0.172500000000     0.323820000000     0.888340000000     0.43846    
C27      C      0.190200000000     0.296940000000     0.781350000000     0.437598   
C28      C      0.129930000000     0.353290000000     0.826080000000     0.442889   
C29      C      0.333490000000     0.151860000000     0.713460000000     0.433986   
C30      C      0.325320000000     0.174250000000     0.545220000000     0.442117   
C31      C      0.299440000000     0.191480000000     0.652500000000     0.439411   
C32      C      0.359120000000     0.135240000000     0.604040000000     0.439949   
C33      C      0.995560000000     0.507470000000     0.889910000000     0.434168   
C34      C      0.998820000000     0.482550000000     0.058210000000     0.434264   
C35      C      0.024110000000     0.463610000000     0.950940000000     0.437217   
C36      C      0.970690000000     0.526390000000     0.997230000000     0.435465   
C37      C      0.662440000000     0.843010000000     0.211960000000     0.437614   
C38      C      0.667450000000     0.821020000000     0.381320000000     0.435185   
C39      C      0.691580000000     0.799590000000     0.275420000000     0.438647   
C40      C      0.638740000000     0.863490000000     0.317860000000     0.440496   
C41      C      0.844160000000     0.657220000000     0.238270000000     0.439379   
C42      C      0.820800000000     0.663100000000     0.070020000000     0.441812   
C43      C      0.800180000000     0.686140000000     0.175480000000     0.441291   
C44      C      0.865340000000     0.634640000000     0.131610000000     0.439115   
C45      C      0.489470000000     0.003830000000     0.380680000000     0.435318   
C46      C      0.515100000000     0.999090000000     0.548500000000     0.438424   
C47      C      0.534030000000     0.975300000000     0.441600000000     0.440547   
C48      C      0.470950000000     0.028320000000     0.488870000000     0.437113   
C49      C      0.329330000000     0.143610000000     0.046130000000     0.438355   
C50      C      0.334830000000     0.177560000000     0.212440000000     0.436502   
C51      C      0.360090000000     0.218090000000     0.103100000000     0.437997   
C52      C      0.304190000000     0.102930000000     0.155110000000     0.438321   
C53      C      0.506380000000     0.504940000000     0.035640000000     0.44057    
C54      C      0.494400000000     0.478990000000     0.866200000000     0.439252   
C55      C      0.468400000000     0.433050000000     0.972080000000     0.437632   
C56      C      0.531270000000     0.550060000000     0.929580000000     0.437321   
C57      C      0.176520000000     0.845600000000     0.391600000000     0.43981    
C58      C      0.149600000000     0.814490000000     0.224230000000     0.438321   
C59      C      0.132400000000     0.772220000000     0.331180000000     0.439251   
C60      C      0.194400000000     0.888580000000     0.285140000000     0.440045   
C61      C      0.999460000000     0.513330000000     0.557900000000     0.439365   
C62      C      0.992410000000     0.480810000000     0.390610000000     0.436552   
C63      C      0.967770000000     0.439200000000     0.498660000000     0.438235   
C64      C      0.023840000000     0.555290000000     0.451340000000     0.443166   
C65      C      0.818730000000     0.150570000000     0.553460000000     0.435811   
C66      C      0.840620000000     0.175890000000     0.722870000000     0.439639   
C67      C      0.859430000000     0.222050000000     0.619080000000     0.441274   
C68      C      0.800270000000     0.104550000000     0.658370000000     0.436165   
C69      C      0.670860000000     0.845050000000     0.879360000000     0.439709   
C70      C      0.661960000000     0.810450000000     0.713250000000     0.43952    
C71      C      0.639870000000     0.770960000000     0.825110000000     0.440276   
C72      C      0.693030000000     0.884660000000     0.767490000000     0.439406   
C73      C      0.691020000000     0.925420000000     0.723380000000     0.0278154  
C74      C      0.738640000000     0.934810000000     0.759330000000     0.0710048  
C75      C      0.706070000000     0.957020000000     0.708980000000    -0.0517235  
C76      C      0.738240000000     0.028050000000     0.701040000000    -0.0869136  
C77      C      0.754110000000     0.966110000000     0.744760000000    -0.0769298  
C78      C      0.754120000000     0.010850000000     0.702740000000     0.0419629  
C79      C      0.737850000000     0.977670000000     0.719430000000     0.0263441  
C80      C      0.753830000000     0.059130000000     0.685270000000     0.0767951  
C81      C      0.800550000000     0.056780000000     0.672760000000     0.0759173  
C82      C      0.785600000000     0.025590000000     0.688000000000    -0.0870405  
C83      C      0.659140000000     0.904120000000     0.704090000000     0.293421   
C84      C      0.907050000000     0.272900000000     0.613630000000     0.0278871  
C85      C      0.858250000000     0.264480000000     0.583260000000     0.0713313  
C86      C      0.922550000000     0.303410000000     0.594700000000    -0.0510135  
C87      C      0.953800000000     0.361690000000     0.535730000000    -0.0857099  
C88      C      0.873180000000     0.294460000000     0.563920000000    -0.0765115  
C89      C      0.922010000000     0.346970000000     0.549400000000     0.0429624  
C90      C      0.905780000000     0.314450000000     0.569180000000     0.0258177  
C91      C      0.968770000000     0.392500000000     0.518770000000     0.0786743  
C92      C      0.921350000000     0.394220000000     0.526110000000     0.0772553  
C93      C      0.905920000000     0.363840000000     0.544330000000    -0.0866634  
C94      C      0.925670000000     0.264610000000     0.645130000000     0.292873   
C95      C      0.070450000000     0.607100000000     0.447030000000     0.0297246  
C96      C      0.021940000000     0.596770000000     0.413090000000     0.0732364  
C97      C      0.085620000000     0.637340000000     0.427410000000    -0.0517496  
C98      C      0.115810000000     0.693120000000     0.363710000000    -0.0867211  
C99      C      0.036450000000     0.626840000000     0.393890000000    -0.0772196  
C100     C      0.084800000000     0.679640000000     0.380080000000     0.0432999  
C101     C      0.068760000000     0.647420000000     0.400320000000     0.0263355  
C102     C      0.131150000000     0.723890000000     0.346830000000     0.0802469  
C103     C      0.085590000000     0.728150000000     0.360310000000     0.0775152  
C104     C      0.069600000000     0.697480000000     0.377740000000    -0.0866049  
C105     C      0.088830000000     0.600300000000     0.481030000000     0.293249   
C106     C      0.597340000000     0.728140000000     0.866340000000     0.0279094  
C107     C      0.639890000000     0.723130000000     0.836330000000     0.0712869  
C108     C      0.582340000000     0.696540000000     0.880390000000    -0.0514023  
C109     C      0.546330000000     0.626310000000     0.886050000000    -0.0880226  
C110     C      0.625320000000     0.691620000000     0.850040000000    -0.0758998  
C111     C      0.579420000000     0.644030000000     0.886350000000     0.0430459  
C112     C      0.595950000000     0.677760000000     0.871880000000     0.0255239  
C113     C      0.530820000000     0.595240000000     0.901320000000     0.0779288  
C114     C      0.579790000000     0.597720000000     0.915370000000     0.0758587  
C115     C      0.596160000000     0.629260000000     0.901200000000    -0.0867111  
C116     C      0.583290000000     0.747220000000     0.882580000000     0.293435   
C117     C      0.200280000000     0.940620000000     0.278770000000     0.028609   
C118     C      0.238110000000     0.929270000000     0.246250000000     0.0726887  
C119     C      0.215510000000     0.970450000000     0.257880000000    -0.0513599  
C120     C      0.241240000000     0.025090000000     0.191990000000    -0.0878778  
C121     C      0.253810000000     0.958930000000     0.225750000000    -0.076203   
C122     C      0.258610000000     0.011580000000     0.208940000000     0.0420366  
C123     C      0.242320000000     0.979810000000     0.230760000000     0.0261213  
C124     C      0.256830000000     0.055420000000     0.173470000000     0.0774053  
C125     C      0.306490000000     0.059150000000     0.186350000000     0.0766731  
C126     C      0.291660000000     0.028960000000     0.205480000000    -0.0866594  
C127     C      0.175120000000     0.934740000000     0.312300000000     0.29143    
C128     C      0.419900000000     0.387610000000     0.999220000000     0.0297039  
C129     C      0.467180000000     0.385420000000     0.991540000000     0.0699983  
C130     C      0.405370000000     0.358070000000     0.020750000000    -0.0503846  
C131     C      0.372350000000     0.289280000000     0.044330000000    -0.0864729  
C132     C      0.452520000000     0.355170000000     0.010420000000    -0.0757853  
C133     C      0.405280000000     0.309010000000     0.047380000000     0.0423757  
C134     C      0.421360000000     0.341200000000     0.026250000000     0.0256716  
C135     C      0.357620000000     0.259510000000     0.064550000000     0.0772097  
C136     C      0.407090000000     0.267090000000     0.089290000000     0.0772627  
C137     C      0.422520000000     0.297500000000     0.070800000000    -0.0857797  
C138     C      0.399140000000     0.401090000000     0.990240000000     0.297195   
C139     C      0.692310000000     0.837130000000     0.455910000000     0.0260981  
C140     C      0.642500000000     0.790380000000     0.446890000000     0.0696238  
C141     C      0.691350000000     0.831110000000     0.502730000000    -0.0496438  
C142     C      0.635260000000     0.797030000000     0.594750000000    -0.0875983  
C143     C      0.640610000000     0.784680000000     0.493630000000    -0.0762092  
C144     C      0.662520000000     0.801630000000     0.572310000000     0.0442609  
C145     C      0.665140000000     0.805240000000     0.522110000000     0.0250402  
C146     C      0.634930000000     0.798630000000     0.642180000000     0.0791214  
C147     C      0.687000000000     0.806820000000     0.645830000000     0.0790279  
C148     C      0.688260000000     0.805720000000     0.598440000000    -0.0872612  
C149     C      0.719380000000     0.867450000000     0.440530000000     0.295674   
C150     C      0.635030000000     0.832160000000     0.139560000000     0.0275094  
C151     C      0.690000000000     0.869250000000     0.145140000000     0.0703115  
C152     C      0.637240000000     0.834220000000     0.091860000000    -0.0507904  
C153     C      0.645240000000     0.854290000000     0.992590000000    -0.0879546  
C154     C      0.692530000000     0.872150000000     0.097940000000    -0.077029   
C155     C      0.668980000000     0.854980000000     0.020160000000     0.0438928  
C156     C      0.666200000000     0.853960000000     0.070610000000     0.0249904  
C157     C      0.646950000000     0.852410000000     0.945350000000     0.0789549  
C158     C      0.695760000000     0.853290000000     0.951720000000     0.0779986  
C159     C      0.694830000000     0.855250000000     0.999050000000    -0.0871045  
C160     C      0.602670000000     0.814320000000     0.159080000000     0.292525   
C161     C      0.751300000000     0.687470000000     0.180530000000     0.0272864  
C162     C      0.799400000000     0.728530000000     0.211520000000     0.0719369  
C163     C      0.735330000000     0.702750000000     0.196920000000    -0.0506808  
C164     C      0.703650000000     0.733210000000     0.248310000000    -0.0872627  
C165     C      0.784020000000     0.743800000000     0.228330000000    -0.0767536  
C166     C      0.735630000000     0.748960000000     0.235610000000     0.0430404  
C167     C      0.751690000000     0.731340000000     0.220670000000     0.0252208  
C168     C      0.689160000000     0.750450000000     0.261280000000     0.0773535  
C169     C      0.737310000000     0.798420000000     0.251080000000     0.077503   
C170     C      0.752270000000     0.782040000000     0.236820000000    -0.087829   
C171     C      0.733020000000     0.659710000000     0.150500000000     0.290403   
C172     C      0.582120000000     0.977920000000     0.413260000000     0.0315673  
C173     C      0.535130000000     0.928680000000     0.424060000000     0.0720285  
C174     C      0.596250000000     0.962410000000     0.391950000000    -0.0515185  
C175     C      0.628500000000     0.925330000000     0.370920000000    -0.085714   
C176     C      0.549400000000     0.912710000000     0.405450000000    -0.0761105  
C177     C      0.595680000000     0.912740000000     0.367700000000     0.0434815  
C178     C      0.580140000000     0.929500000000     0.388130000000     0.0270787  
C179     C      0.642580000000     0.909120000000     0.352450000000     0.079346   
C180     C      0.592640000000     0.867620000000     0.328640000000     0.0791065  
C181     C      0.577880000000     0.883700000000     0.345410000000    -0.0857594  
C182     C      0.603090000000     0.012170000000     0.421410000000     0.289411   
C183     C      0.977860000000     0.524310000000     0.625540000000     0.0264216  
C184     C      0.024360000000     0.520270000000     0.629420000000     0.0712984  
C185     C      0.976460000000     0.524130000000     0.673380000000    -0.0521428  
C186     C      0.970040000000     0.497620000000     0.770870000000    -0.0881514  
C187     C      0.024210000000     0.521520000000     0.676740000000    -0.0764627  
C188     C      0.997550000000     0.520580000000     0.749480000000     0.0417461  
C189     C      0.999520000000     0.522350000000     0.699210000000     0.0240721  
C190     C      0.969540000000     0.493990000000     0.818040000000     0.0756383  
C191     C      0.022120000000     0.536660000000     0.823540000000     0.0755992  
C192     C      0.023650000000     0.540500000000     0.776340000000    -0.0878624  
C193     C      0.955660000000     0.531570000000     0.600950000000     0.294493   
C194     C      0.013910000000     0.468840000000     0.323840000000     0.0285232  
C195     C      0.968250000000     0.474300000000     0.318530000000     0.0699366  
C196     C      0.015660000000     0.468680000000     0.276110000000    -0.050727   
C197     C      0.023550000000     0.493590000000     0.177660000000    -0.0871943  
C198     C      0.968740000000     0.472710000000     0.271210000000    -0.0769627  
C199     C      0.995450000000     0.471910000000     0.199230000000     0.0421685  
C200     C      0.993190000000     0.470930000000     0.249520000000     0.0244271  
C201     C      0.024550000000     0.496290000000     0.130300000000     0.0765287  
C202     C      0.971220000000     0.455110000000     0.125080000000     0.0751997  
C203     C      0.969220000000     0.452240000000     0.172420000000    -0.0881612  
C204     C      0.035370000000     0.460890000000     0.349080000000     0.294486   
C205     C      0.913650000000     0.638180000000     0.102300000000     0.0274561  
C206     C      0.867090000000     0.588530000000     0.112680000000     0.0700959  
C207     C      0.927870000000     0.623230000000     0.079600000000    -0.051215   
C208     C      0.960440000000     0.587080000000     0.054220000000    -0.0874493  
C209     C      0.881480000000     0.573090000000     0.092620000000    -0.0768032  
C210     C      0.927530000000     0.574210000000     0.052280000000     0.041942   
C211     C      0.911990000000     0.590390000000     0.074650000000     0.0249458  
C212     C      0.974520000000     0.571410000000     0.033940000000     0.0759891  
C213     C      0.924450000000     0.529910000000     0.010630000000     0.0753023  
C214     C      0.909660000000     0.545470000000     0.029280000000    -0.0875667  
C215     C      0.934360000000     0.672360000000     0.111290000000     0.293925   
C216     C      0.301340000000     0.124570000000     0.974870000000     0.0266692  
C217     C      0.357030000000     0.146070000000     0.978750000000     0.0691938  
C218     C      0.302950000000     0.125190000000     0.927080000000    -0.0518027  
C219     C      0.310160000000     0.116080000000     0.826700000000    -0.0871066  
C220     C      0.359050000000     0.146200000000     0.931340000000    -0.0770123  
C221     C      0.333930000000     0.139150000000     0.854180000000     0.0415038  
C222     C      0.331990000000     0.136630000000     0.904800000000     0.0244205  
C223     C      0.310870000000     0.120280000000     0.779610000000     0.0754148  
C224     C      0.358810000000     0.168910000000     0.785610000000     0.0747345  
C225     C      0.358780000000     0.165500000000     0.832860000000    -0.0867054  
C226     C      0.269300000000     0.107690000000     0.995770000000     0.293324   
C227     C      0.361960000000     0.195820000000     0.284740000000     0.0270104  
C228     C      0.306740000000     0.176660000000     0.278530000000     0.0697432  
C229     C      0.359580000000     0.196030000000     0.332420000000    -0.0509738  
C230     C      0.350660000000     0.208300000000     0.431380000000    -0.0876667  
C231     C      0.303990000000     0.177270000000     0.325730000000    -0.0768385  
C232     C      0.327480000000     0.184680000000     0.403900000000     0.0438192  
C233     C      0.330390000000     0.186200000000     0.353390000000     0.0247082  
C234     C      0.348860000000     0.205070000000     0.478710000000     0.0802203  
C235     C      0.301140000000     0.156230000000     0.472620000000     0.0802661  
C236     C      0.302130000000     0.158780000000     0.425210000000    -0.0864039  
C237     C      0.394400000000     0.210850000000     0.265350000000     0.291757   
C238     C      0.403070000000     0.137130000000     0.563600000000     0.0273557  
C239     C      0.362000000000     0.088880000000     0.593990000000     0.0710085  
C240     C      0.418820000000     0.121480000000     0.548440000000    -0.0511746  
C241     C      0.456060000000     0.088860000000     0.535600000000    -0.0879075  
C242     C      0.377460000000     0.072940000000     0.579520000000    -0.0763784  
C243     C      0.423020000000     0.072670000000     0.539360000000     0.0427031  
C244     C      0.406280000000     0.089180000000     0.556370000000     0.0253045  
C245     C      0.471470000000     0.073860000000     0.517620000000     0.0776585  
C246     C      0.422690000000     0.026300000000     0.509210000000     0.0760074  
C247     C      0.406360000000     0.040920000000     0.525770000000    -0.0869103  
C248     C      0.416140000000     0.170250000000     0.548070000000     0.293301   
C249     C      0.082180000000     0.356250000000     0.834100000000     0.028025   
C250     C      0.131210000000     0.396020000000     0.864520000000     0.0716337  
C251     C      0.066890000000     0.371210000000     0.854060000000    -0.0504135  
C252     C      0.036350000000     0.398960000000     0.913610000000    -0.087375   
C253     C      0.116500000000     0.410930000000     0.884970000000    -0.0745674  
C254     C      0.068180000000     0.415440000000     0.900030000000     0.0431922  
C255     C      0.083930000000     0.398750000000     0.879940000000     0.0250562  
C256     C      0.021920000000     0.415330000000     0.930750000000     0.0772777  
C257     C      0.069970000000     0.463760000000     0.923760000000     0.076561   
C258     C      0.084840000000     0.448320000000     0.905340000000    -0.0877329  
C259     C      0.063260000000     0.329680000000     0.802360000000     0.292863   
C260     C      0.251630000000     0.194550000000     0.660550000000     0.0274889  
C261     C      0.300420000000     0.233720000000     0.692410000000     0.0711809  
C262     C      0.236110000000     0.208790000000     0.681790000000    -0.0511668  
C263     C      0.206160000000     0.234230000000     0.746970000000    -0.0877089  
C264     C      0.285550000000     0.248350000000     0.713300000000    -0.0768875  
C265     C      0.236930000000     0.251750000000     0.729670000000     0.0428047  
C266     C      0.252990000000     0.235850000000     0.708510000000     0.0252455  
C267     C      0.191040000000     0.249670000000     0.764920000000     0.0764609  
C268     C      0.236420000000     0.299370000000     0.750620000000     0.0768535  
C269     C      0.252080000000     0.284720000000     0.732050000000    -0.0874296  
C270     C      0.232750000000     0.168940000000     0.627510000000     0.291483   
C271     C      0.511330000000     0.477350000000     0.599100000000     0.0193089  
C272     C      0.482910000000     0.504910000000     0.608190000000     0.0733796  
C273     C      0.511630000000     0.473950000000     0.646460000000    -0.0488099  
C274     C      0.520420000000     0.481810000000     0.748940000000    -0.0881804  
C275     C      0.483660000000     0.502510000000     0.655180000000    -0.077362   
C276     C      0.495180000000     0.480730000000     0.724800000000     0.0433196  
C277     C      0.496970000000     0.485810000000     0.674850000000     0.0244166  
C278     C      0.518990000000     0.479290000000     0.796250000000     0.076605   
C279     C      0.467780000000     0.473470000000     0.796260000000     0.0775137  
C280     C      0.468230000000     0.475430000000     0.748990000000    -0.087775   
C281     C      0.526630000000     0.463130000000     0.571490000000     0.292968   
C282     C      0.485720000000     0.510940000000     0.107910000000     0.0290671  
C283     C      0.537170000000     0.517050000000     0.102370000000     0.0712484  
C284     C      0.490530000000     0.517670000000     0.154560000000    -0.0514754  
C285     C      0.513210000000     0.542810000000     0.251230000000    -0.0886842  
C286     C      0.541840000000     0.522550000000     0.148870000000    -0.0782275  
C287     C      0.520670000000     0.523400000000     0.225500000000     0.0432047  
C288     C      0.518270000000     0.522530000000     0.175450000000     0.0256144  
C289     C      0.511840000000     0.540190000000     0.298560000000     0.0770856  
C290     C      0.525580000000     0.500070000000     0.295080000000     0.0773354  
C291     C      0.527730000000     0.502490000000     0.247920000000    -0.0887081  
C292     C      0.453380000000     0.500620000000     0.090940000000     0.291585   
C293     C      0.862280000000     0.163820000000     0.984380000000     0.0269867  
C294     C      0.844810000000     0.201260000000     0.987870000000     0.0701337  
C295     C      0.862800000000     0.165610000000     0.936600000000    -0.0515072  
C296     C      0.874700000000     0.183860000000     0.836550000000    -0.0873728  
C297     C      0.845870000000     0.203930000000     0.940630000000    -0.0770046  
C298     C      0.852010000000     0.185430000000     0.863830000000     0.0431342  
C299     C      0.853880000000     0.185220000000     0.914310000000     0.0250893  
C300     C      0.871050000000     0.181620000000     0.789310000000     0.0777165  
C301     C      0.823640000000     0.183550000000     0.795220000000     0.0773287  
C302     C      0.826560000000     0.185810000000     0.842470000000    -0.0875318  
C303     C      0.876520000000     0.146200000000     0.005600000000     0.293637   
C304     C      0.792070000000     0.160220000000     0.292960000000     0.0276878  
C305     C      0.809210000000     0.122540000000     0.288490000000     0.0704983  
C306     C      0.792960000000     0.159160000000     0.340690000000    -0.0513576  
C307     C      0.782860000000     0.141280000000     0.440900000000    -0.0872761  
C308     C      0.809670000000     0.120700000000     0.335770000000    -0.0772046  
C309     C      0.805420000000     0.140170000000     0.412820000000     0.0425477  
C310     C      0.802460000000     0.139840000000     0.362470000000     0.0252097  
C311     C      0.787260000000     0.143880000000     0.487960000000     0.0764394  
C312     C      0.835350000000     0.143420000000     0.480400000000     0.0759508  
C313     C      0.831630000000     0.140720000000     0.433200000000    -0.086932   
C314     C      0.777490000000     0.177810000000     0.272740000000     0.291707   
C315     C      0.146240000000     0.353200000000     0.457240000000     0.0277416  
C316     C      0.134470000000     0.299780000000     0.459870000000     0.0721538  
C317     C      0.141330000000     0.352490000000     0.504300000000    -0.0512277  
C318     C      0.159610000000     0.353430000000     0.602130000000    -0.0881648  
C319     C      0.130360000000     0.298940000000     0.506850000000    -0.0763761  
C320     C      0.135460000000     0.327020000000     0.580090000000     0.0440661  
C321     C      0.134500000000     0.325720000000     0.529700000000     0.0260617  
C322     C      0.162610000000     0.353420000000     0.649170000000     0.0792966  
C323     C      0.117580000000     0.302240000000     0.653730000000     0.0777114  
C324     C      0.113950000000     0.301410000000     0.606490000000    -0.0875346  
C325     C      0.158360000000     0.384390000000     0.435150000000     0.294661   
C326     C      0.200760000000     0.351090000000     0.956890000000     0.0265645  
C327     C      0.159250000000     0.297570000000     0.959330000000     0.0705555  
C328     C      0.204480000000     0.350570000000     0.004060000000    -0.050876   
C329     C      0.185310000000     0.351690000000     0.100890000000    -0.0882096  
C330     C      0.162030000000     0.296920000000     0.006460000000    -0.0761438  
C331     C      0.184060000000     0.325480000000     0.079700000000     0.0432303  
C332     C      0.184300000000     0.323880000000     0.029400000000     0.0249436  
C333     C      0.182330000000     0.352150000000     0.147890000000     0.0775908  
C334     C      0.177980000000     0.301800000000     0.153980000000     0.0757974  
C335     C      0.180680000000     0.300470000000     0.106800000000    -0.0881101  
C336     C      0.220020000000     0.382300000000     0.934920000000     0.295106   
C337     C      0.050430000000     0.294460000000     0.279540000000     0.0283143  
C338     C      0.058220000000     0.253350000000     0.251010000000     0.0711173  
C339     C      0.019800000000     0.279410000000     0.260830000000    -0.0514757  
C340     C      0.961670000000     0.252560000000     0.201670000000    -0.0866985  
C341     C      0.028090000000     0.238240000000     0.231860000000    -0.0770497  
C342     C      0.975870000000     0.235190000000     0.216130000000     0.0419991  
C343     C      0.008390000000     0.251250000000     0.236190000000     0.0261287  
C344     C      0.930890000000     0.237090000000     0.184420000000     0.0780717  
C345     C      0.928120000000     0.187650000000     0.192840000000     0.0767899  
C346     C      0.958490000000     0.202260000000     0.211420000000    -0.0872356  
C347     C      0.059140000000     0.321900000000     0.310020000000     0.293257   
C348     C      0.387150000000     0.462000000000     0.431410000000     0.0278169  
C349     C      0.397990000000     0.425240000000     0.394220000000     0.071183   
C350     C      0.356310000000     0.446300000000     0.413560000000    -0.051498   
C351     C      0.298420000000     0.419600000000     0.353340000000    -0.0872229  
C352     C      0.367320000000     0.409040000000     0.376810000000    -0.0763792  
C353     C      0.313280000000     0.402870000000     0.367560000000     0.0432066  
C354     C      0.346170000000     0.419770000000     0.385750000000     0.0254458  
C355     C      0.267100000000     0.403420000000     0.338310000000     0.078901   
C356     C      0.264900000000     0.354420000000     0.349700000000     0.0767856  
C357     C      0.296150000000     0.369860000000     0.365140000000    -0.0870324  
C358     C      0.394180000000     0.486620000000     0.466370000000     0.293321   
C359     C      0.546610000000     0.022230000000     0.616800000000     0.028843   
C360     C      0.497530000000     0.974120000000     0.619950000000     0.0713869  
C361     C      0.547220000000     0.023710000000     0.664630000000    -0.0531719  
C362     C      0.517300000000     0.975670000000     0.766920000000    -0.0870137  
C363     C      0.498450000000     0.974410000000     0.667270000000    -0.0778897  
C364     C      0.522480000000     0.001520000000     0.740330000000     0.0414013  
C365     C      0.522890000000     0.999850000000     0.690080000000     0.0271169  
C366     C      0.514030000000     0.976540000000     0.813990000000     0.077372   
C367     C      0.521210000000     0.028080000000     0.809010000000     0.0775582  
C368     C      0.525210000000     0.028230000000     0.761930000000    -0.0878808  
C369     C      0.575720000000     0.045790000000     0.592970000000     0.289676   
C370     C      0.461790000000     0.967230000000     0.120270000000     0.027615   
C371     C      0.479570000000     0.022110000000     0.115340000000     0.0700784  
C372     C      0.462880000000     0.969380000000     0.168020000000    -0.0519897  
C373     C      0.453480000000     0.976930000000     0.268260000000    -0.0859661  
C374     C      0.480070000000     0.024570000000     0.162640000000    -0.0777287  
C375     C      0.475480000000     0.001000000000     0.240110000000     0.0407923  
C376     C      0.472610000000     0.998280000000     0.189650000000     0.0269455  
C377     C      0.458020000000     0.978720000000     0.315320000000     0.0766577  
C378     C      0.504840000000     0.028240000000     0.307810000000     0.0762136  
C379     C      0.501070000000     0.027160000000     0.260600000000    -0.0858214  
C380     C      0.446660000000     0.935030000000     0.100230000000     0.293375   
C381     C      0.603630000000     0.073820000000     0.992380000000     0.02652    
C382     C      0.593340000000     0.025300000000     0.025800000000     0.0708163  
C383     C      0.633870000000     0.088970000000     0.012410000000    -0.0510244  
C384     C      0.690440000000     0.118930000000     0.075710000000    -0.0868258  
C385     C      0.623290000000     0.039800000000     0.045520000000    -0.0760098  
C386     C      0.676290000000     0.087810000000     0.059700000000     0.0429494  
C387     C      0.643960000000     0.072070000000     0.039380000000     0.0250295  
C388     C      0.721090000000     0.133560000000     0.093490000000     0.0784336  
C389     C      0.723940000000     0.087190000000     0.081280000000     0.0771658  
C390     C      0.693500000000     0.071980000000     0.062900000000    -0.0867684  
C391     C      0.596800000000     0.092340000000     0.958750000000     0.292998   
C392     C      0.207760000000     0.852910000000     0.459960000000     0.0278946  
C393     C      0.159340000000     0.853410000000     0.463090000000     0.073246   
C394     C      0.208310000000     0.851970000000     0.507800000000    -0.0516038  
C395     C      0.186860000000     0.826490000000     0.605550000000    -0.0878218  
C396     C      0.160200000000     0.853910000000     0.510410000000    -0.0770465  
C397     C      0.183900000000     0.850260000000     0.583590000000     0.0423646  
C398     C      0.184280000000     0.852170000000     0.533270000000     0.02519    
C399     C      0.183010000000     0.822930000000     0.652700000000     0.0758206  
C400     C      0.175390000000     0.867060000000     0.657000000000     0.0757134  
C401     C      0.178580000000     0.870950000000     0.609910000000    -0.0883034  
C402     C      0.236580000000     0.857560000000     0.436150000000     0.292894   
C403     C      0.158260000000     0.795850000000     0.152200000000     0.0278685  
C404     C      0.121910000000     0.814640000000     0.158340000000     0.0709856  
C405     C      0.155220000000     0.795060000000     0.104610000000    -0.0510533  
C406     C      0.133470000000     0.781840000000     0.006110000000    -0.0879722  
C407     C      0.118010000000     0.813340000000     0.111280000000    -0.0765576  
C408     C      0.133630000000     0.805420000000     0.033310000000     0.0444181  
C409     C      0.135410000000     0.804330000000     0.083710000000     0.0251533  
C410     C      0.134720000000     0.784850000000     0.958800000000     0.0803643  
C411     C      0.134930000000     0.833260000000     0.964490000000     0.0798457  
C412     C      0.133620000000     0.830970000000     0.011840000000    -0.0874223  
C413     C      0.176030000000     0.781230000000     0.171670000000     0.292238   
C414     C      0.257240000000     0.855260000000     0.871880000000     0.0268429  
C415     C      0.262840000000     0.902690000000     0.840870000000     0.0702607  
C416     C      0.288960000000     0.871710000000     0.886020000000    -0.0506093  
C417     C      0.359400000000     0.906220000000     0.897400000000    -0.0874201  
C418     C      0.294490000000     0.919410000000     0.854410000000    -0.0758649  
C419     C      0.341700000000     0.921540000000     0.893480000000     0.0425869  
C420     C      0.308090000000     0.904040000000     0.877380000000     0.0248977  
C421     C      0.390270000000     0.922330000000     0.914120000000     0.0773471  
C422     C      0.387700000000     0.969180000000     0.921320000000     0.0764074  
C423     C      0.356380000000     0.953500000000     0.905910000000    -0.0865545  
C424     C      0.237960000000     0.822270000000     0.888370000000     0.29355    
C425     C      0.803710000000     0.687070000000     0.807860000000     0.0263616  
C426     C      0.796970000000     0.635470000000     0.809540000000     0.0707252  
C427     C      0.805300000000     0.688170000000     0.855620000000    -0.0508765  
C428     C      0.785120000000     0.638030000000     0.957290000000    -0.0887328  
C429     C      0.797470000000     0.635740000000     0.856820000000    -0.077218   
C430     C      0.805640000000     0.663900000000     0.930570000000     0.0438093  
C431     C      0.802550000000     0.662570000000     0.880370000000     0.0247347  
C432     C      0.790040000000     0.638540000000     0.004070000000     0.080308   
C433     C      0.834600000000     0.689990000000     0.998850000000     0.0789774  
C434     C      0.830220000000     0.690340000000     0.951950000000    -0.0877119  
C435     C      0.803920000000     0.714220000000     0.785200000000     0.295293   
C436     C      0.873970000000     0.680460000000     0.307700000000     0.0268222  
C437     C      0.825100000000     0.632060000000     0.309210000000     0.0706761  
C438     C      0.873300000000     0.682010000000     0.355460000000    -0.0524602  
C439     C      0.849260000000     0.687170000000     0.450440000000    -0.0878261  
C440     C      0.824700000000     0.632490000000     0.356510000000    -0.0775082  
C441     C      0.846470000000     0.660080000000     0.430060000000     0.0424948  
C442     C      0.848340000000     0.658150000000     0.380040000000     0.0247618  
C443     C      0.844490000000     0.687570000000     0.497220000000     0.0765973  
C444     C      0.835950000000     0.635600000000     0.504290000000     0.0757118  
C445     C      0.840060000000     0.634230000000     0.457540000000    -0.0886011  
C446     C      0.903560000000     0.704040000000     0.284840000000     0.294314   
C447     C      0.711060000000     0.635480000000     0.617410000000     0.0274177  
C448     C      0.712920000000     0.588060000000     0.610050000000     0.0703544  
C449     C      0.681000000000     0.620670000000     0.596890000000    -0.0541791  
C450     C      0.630430000000     0.591950000000     0.524700000000    -0.0787791  
C451     C      0.682850000000     0.572790000000     0.590410000000    -0.0791741  
C452     C      0.636270000000     0.574460000000     0.557140000000     0.0284216  
C453     C      0.666870000000     0.589310000000     0.582350000000     0.0302878  
C454     C      0.602970000000     0.577450000000     0.498530000000     0.0737841  
C455     C      0.585650000000     0.528810000000     0.537210000000     0.0114416  
C456     C      0.613190000000     0.542690000000     0.563860000000    -0.0515165  
C457     C      0.722170000000     0.667350000000     0.636730000000     0.294752   
C458     C      0.045410000000     0.792120000000     0.783050000000     0.0266105  
C459     C      0.054590000000     0.753190000000     0.749470000000     0.0701308  
C460     C      0.014760000000     0.777090000000     0.764450000000    -0.0506477  
C461     C      0.957360000000     0.750990000000     0.703350000000    -0.0868987  
C462     C      0.024090000000     0.737680000000     0.731300000000    -0.076483   
C463     C      0.971080000000     0.733540000000     0.719120000000     0.0416064  
C464     C      0.003830000000     0.749760000000     0.738110000000     0.0254162  
C465     C      0.926170000000     0.735570000000     0.687700000000     0.0765949  
C466     C      0.921840000000     0.685840000000     0.701200000000     0.0752942  
C467     C      0.952940000000     0.700520000000     0.717390000000    -0.0864481  
C468     C      0.053070000000     0.817820000000     0.816370000000     0.293664   
H1       H      0.740670000000     0.071580000000     0.684980000000     0.0311046  
H2       H      0.752180000000     0.927300000000     0.779780000000     0.0304508  
H3       H      0.798660000000     0.013070000000     0.687760000000     0.0554334  
H4       H      0.778640000000     0.981290000000     0.754090000000     0.0531801  
H5       H      0.714020000000     0.017820000000     0.712530000000     0.0592948  
H6       H      0.693430000000     0.964990000000     0.687400000000     0.0590019  
H7       H      0.824960000000     0.067240000000     0.661910000000     0.0292806  
H8       H      0.632230000000     0.862390000000     0.671590000000     0.182686   
H9       H      0.993410000000     0.403040000000     0.509020000000     0.0362639  
H10      H      0.833110000000     0.249710000000     0.576960000000     0.0298159  
H11      H      0.881640000000     0.354100000000     0.555210000000     0.0554167  
H12      H      0.859060000000     0.301450000000     0.543990000000     0.052659   
H13      H      0.967180000000     0.349560000000     0.537790000000     0.0607454  
H14      H      0.947420000000     0.318960000000     0.601760000000     0.0587495  
H15      H      0.907910000000     0.406310000000     0.523260000000     0.0309085  
H16      H      0.924330000000     0.243590000000     0.705380000000     0.185021   
H17      H      0.155250000000     0.733400000000     0.334980000000     0.0361339  
H18      H      0.997050000000     0.581400000000     0.405670000000     0.0301362  
H19      H      0.045750000000     0.688210000000     0.390360000000     0.0566915  
H20      H      0.022440000000     0.633550000000     0.373130000000     0.0541411  
H21      H      0.128290000000     0.680020000000     0.363880000000     0.0608868  
H22      H      0.110260000000     0.653580000000     0.435130000000     0.0592006  
H23      H      0.073090000000     0.741260000000     0.359800000000     0.0308451  
H24      H      0.086970000000     0.581960000000     0.543740000000     0.183856   
H25      H      0.505190000000     0.582670000000     0.900430000000     0.0313127  
H26      H      0.662210000000     0.732530000000     0.818400000000     0.0317838  
H27      H      0.621730000000     0.642000000000     0.902670000000     0.0561743  
H28      H      0.636770000000     0.678080000000     0.842440000000     0.0540646  
H29      H      0.532220000000     0.636190000000     0.873710000000     0.0591647  
H30      H      0.560650000000     0.687090000000     0.899870000000     0.0583159  
H31      H      0.593560000000     0.587180000000     0.926700000000     0.0286662  
H32      H      0.593070000000     0.788250000000     0.913370000000     0.182909   
H33      H      0.242380000000     0.064970000000     0.161220000000     0.0293004  
H34      H      0.247440000000     0.913650000000     0.239800000000     0.0343396  
H35      H      0.306170000000     0.019730000000     0.218490000000     0.0563559  
H36      H      0.274400000000     0.965030000000     0.205030000000     0.0543402  
H37      H      0.215650000000     0.012340000000     0.192920000000     0.0577206  
H38      H      0.207290000000     0.986950000000     0.264560000000     0.0587133  
H39      H      0.332100000000     0.071890000000     0.185030000000     0.0306285  
H40      H      0.137840000000     0.941240000000     0.324700000000     0.184076   
H41      H      0.332180000000     0.245160000000     0.060940000000     0.0308683  
H42      H      0.491600000000     0.395220000000     0.981040000000     0.030895   
H43      H      0.447830000000     0.311830000000     0.075310000000     0.0554398  
H44      H      0.465820000000     0.342950000000     0.012360000000     0.0513771  
H45      H      0.357750000000     0.296260000000     0.025640000000     0.0570052  
H46      H      0.381270000000     0.348240000000     0.032630000000     0.0573506  
H47      H      0.421400000000     0.259110000000     0.106690000000     0.0336923  
H48      H      0.369340000000     0.413450000000     0.019900000000     0.188475   
H49      H      0.613800000000     0.796190000000     0.658100000000     0.0292919  
H50      H      0.622800000000     0.773450000000     0.426490000000     0.0321684  
H51      H      0.709610000000     0.808930000000     0.582300000000     0.0602907  
H52      H      0.619930000000     0.764290000000     0.507430000000     0.0534964  
H53      H      0.614870000000     0.793870000000     0.575750000000     0.0571109  
H54      H      0.710250000000     0.847830000000     0.524540000000     0.0571026  
H55      H      0.707830000000     0.810960000000     0.664660000000     0.0313276  
H56      H      0.767280000000     0.892670000000     0.436900000000     0.183365   
H57      H      0.627700000000     0.851240000000     0.925440000000     0.0289829  
H58      H      0.711530000000     0.883070000000     0.164490000000     0.031112   
H59      H      0.713700000000     0.855690000000     0.018990000000     0.0562744  
H60      H      0.715240000000     0.888320000000     0.082950000000     0.0526044  
H61      H      0.625190000000     0.854800000000     0.007390000000     0.057605   
H62      H      0.616270000000     0.820580000000     0.071340000000     0.0604179  
H63      H      0.715750000000     0.852590000000     0.936990000000     0.0297841  
H64      H      0.559640000000     0.775000000000     0.151640000000     0.185257   
H65      H      0.664400000000     0.737380000000     0.270720000000     0.0300613  
H66      H      0.824430000000     0.739160000000     0.219030000000     0.0327273  
H67      H      0.776690000000     0.795510000000     0.226110000000     0.0555605  
H68      H      0.797660000000     0.765280000000     0.247640000000     0.0534694  
H69      H      0.689840000000     0.707710000000     0.248720000000     0.0578591  
H70      H      0.710550000000     0.693190000000     0.188810000000     0.057855   
H71      H      0.751220000000     0.823960000000     0.251310000000     0.0294264  
H72      H      0.690310000000     0.620150000000     0.141950000000     0.182393   
H73      H      0.667950000000     0.919630000000     0.356320000000     0.0359396  
H74      H      0.510970000000     0.914290000000     0.435760000000     0.0323977  
H75      H      0.552620000000     0.873270000000     0.340760000000     0.0570961  
H76      H      0.536180000000     0.887190000000     0.404950000000     0.0534038  
H77      H      0.643420000000     0.947210000000     0.388640000000     0.0590713  
H78      H      0.620170000000     0.976250000000     0.379170000000     0.0582353  
H79      H      0.577920000000     0.845050000000     0.312250000000     0.0350152  
H80      H      0.633780000000     0.053670000000     0.391080000000     0.184388   
H81      H      0.948030000000     0.475350000000     0.833160000000     0.0290403  
H82      H      0.043380000000     0.518150000000     0.613980000000     0.0328919  
H83      H      0.045250000000     0.558700000000     0.760890000000     0.0564826  
H84      H      0.042680000000     0.520440000000     0.695710000000     0.0541022  
H85      H      0.949410000000     0.481750000000     0.751110000000     0.0585314  
H86      H      0.958070000000     0.526450000000     0.690540000000     0.0576851  
H87      H      0.043030000000     0.552270000000     0.843030000000     0.0288557  
H88      H      0.952540000000     0.558770000000     0.551290000000     0.181071   
H89      H      0.046520000000     0.514000000000     0.115010000000     0.0299999  
H90      H      0.949560000000     0.477230000000     0.333400000000     0.0312658  
H91      H      0.947190000000     0.434940000000     0.187970000000     0.0562231  
H92      H      0.950730000000     0.474220000000     0.251640000000     0.0529054  
H93      H      0.044330000000     0.509190000000     0.197360000000     0.0599142  
H94      H      0.033800000000     0.465600000000     0.259610000000     0.061444   
H95      H      0.950190000000     0.439770000000     0.105630000000     0.0286182  
H96      H      0.080210000000     0.468460000000     0.351640000000     0.189496   
H97      H      0.999970000000     0.582130000000     0.036920000000     0.0292842  
H98      H      0.843080000000     0.573780000000     0.124720000000     0.0310269  
H99      H      0.884320000000     0.534850000000     0.025530000000     0.0538062  
H100     H      0.868480000000     0.547580000000     0.091390000000     0.0510855  
H101     H      0.975460000000     0.608760000000     0.072330000000     0.056478   
H102     H      0.951640000000     0.637470000000     0.066500000000     0.0566845  
H103     H      0.909660000000     0.507520000000     0.993830000000     0.0275468  
H104     H      0.964820000000     0.714330000000     0.081920000000     0.183501   
H105     H      0.291650000000     0.102070000000     0.759900000000     0.0301064  
H106     H      0.378970000000     0.155170000000     0.997570000000     0.0304911  
H107     H      0.377590000000     0.184060000000     0.852630000000     0.0550908  
H108     H      0.381890000000     0.154390000000     0.915610000000     0.0519585  
H109     H      0.290860000000     0.094940000000     0.841460000000     0.0564305  
H110     H      0.281450000000     0.116620000000     0.907340000000     0.0586585  
H111     H      0.378120000000     0.190060000000     0.770790000000     0.0297654  
H112     H      0.243220000000     0.077580000000     0.046380000000     0.182144   
H113     H      0.367640000000     0.223670000000     0.498530000000     0.0283516  
H114     H      0.285190000000     0.168260000000     0.258930000000     0.0309146  
H115     H      0.283710000000     0.139900000000     0.405360000000     0.0570566  
H116     H      0.281090000000     0.170240000000     0.340470000000     0.05296    
H117     H      0.370320000000     0.229070000000     0.416450000000     0.0570333  
H118     H      0.380590000000     0.204040000000     0.353140000000     0.0600167  
H119     H      0.281540000000     0.135340000000     0.487500000000     0.0334291  
H120     H      0.438210000000     0.216490000000     0.274070000000     0.183676   
H121     H      0.497040000000     0.087480000000     0.515400000000     0.031604   
H122     H      0.339970000000     0.075320000000     0.612370000000     0.0295294  
H123     H      0.380810000000     0.027420000000     0.527110000000     0.0558317  
H124     H      0.366920000000     0.048070000000     0.587180000000     0.0520314  
H125     H      0.470270000000     0.113050000000     0.546830000000     0.0586934  
H126     H      0.440100000000     0.134390000000     0.528280000000     0.0570026  
H127     H      0.408950000000     0.001760000000     0.499130000000     0.0291841  
H128     H      0.405300000000     0.200600000000     0.516700000000     0.182202   
H129     H      0.997220000000     0.401730000000     0.940350000000     0.0285953  
H130     H      0.156380000000     0.406170000000     0.870480000000     0.0413865  
H131     H      0.109160000000     0.462460000000     0.894450000000     0.055663   
H132     H      0.130800000000     0.431690000000     0.905360000000     0.0542937  
H133     H      0.022520000000     0.373510000000     0.911280000000     0.0585063  
H134     H      0.042000000000     0.362140000000     0.847410000000     0.0580728  
H135     H      0.083880000000     0.489220000000     0.926750000000     0.0291545  
H136     H      0.063940000000     0.310580000000     0.741290000000     0.18577    
H137     H      0.167120000000     0.235210000000     0.777430000000     0.0296438  
H138     H      0.325570000000     0.243980000000     0.698530000000     0.0313642  
H139     H      0.275670000000     0.299340000000     0.718590000000     0.0564997  
H140     H      0.299600000000     0.269070000000     0.733940000000     0.0536365  
H141     H      0.193720000000     0.208690000000     0.746710000000     0.0583663  
H142     H      0.211150000000     0.199690000000     0.675520000000     0.0581907  
H143     H      0.248960000000     0.324940000000     0.751100000000     0.0309772  
H144     H      0.189720000000     0.130320000000     0.616380000000     0.183689   
H145     H      0.539470000000     0.481300000000     0.813710000000     0.0288318  
H146     H      0.471090000000     0.516870000000     0.594400000000     0.0300006  
H147     H      0.447680000000     0.473270000000     0.731630000000     0.0571413  
H148     H      0.473310000000     0.513290000000     0.675920000000     0.0533191  
H149     H      0.541720000000     0.485840000000     0.731730000000     0.0550269  
H150     H      0.522560000000     0.461320000000     0.660880000000     0.0518349  
H151     H      0.446830000000     0.470320000000     0.813680000000     0.032449   
H152     H      0.522630000000     0.421100000000     0.553870000000     0.168256   
H153     H      0.505270000000     0.555100000000     0.317360000000     0.0307137  
H154     H      0.556450000000     0.517580000000     0.083340000000     0.0307204  
H155     H      0.533430000000     0.486970000000     0.229010000000     0.0569803  
H156     H      0.563680000000     0.526320000000     0.164080000000     0.0533822  
H157     H      0.507790000000     0.559380000000     0.234840000000     0.0591464  
H158     H      0.471590000000     0.516550000000     0.175250000000     0.0584483  
H159     H      0.530300000000     0.482870000000     0.311040000000     0.0295212  
H160     H      0.419180000000     0.512630000000     0.087870000000     0.184889   
H161     H      0.888910000000     0.179960000000     0.769560000000     0.0298768  
H162     H      0.837000000000     0.215290000000     0.006400000000     0.0311923  
H163     H      0.808320000000     0.186760000000     0.862180000000     0.0560725  
H164     H      0.839730000000     0.220140000000     0.924810000000     0.0529061  
H165     H      0.895090000000     0.184120000000     0.851560000000     0.0582895  
H166     H      0.870210000000     0.151720000000     0.916900000000     0.0584489  
H167     H      0.803170000000     0.183230000000     0.780320000000     0.0299826  
H168     H      0.905270000000     0.147320000000     0.056450000000     0.182072   
H169     H      0.769380000000     0.145100000000     0.508290000000     0.0306096  
H170     H      0.816440000000     0.108200000000     0.269510000000     0.0307221  
H171     H      0.849760000000     0.140110000000     0.412750000000     0.0559893  
H172     H      0.816270000000     0.104740000000     0.351310000000     0.0529109  
H173     H      0.761950000000     0.140340000000     0.426630000000     0.0575647  
H174     H      0.786140000000     0.173360000000     0.360820000000     0.0594702  
H175     H      0.856330000000     0.144440000000     0.494620000000     0.0300546  
H176     H      0.773070000000     0.216740000000     0.279650000000     0.183614   
H177     H      0.182150000000     0.374130000000     0.664550000000     0.0312741  
H178     H      0.131200000000     0.278360000000     0.443970000000     0.032104   
H179     H      0.094740000000     0.280690000000     0.590730000000     0.0575522  
H180     H      0.125250000000     0.277750000000     0.525300000000     0.0535566  
H181     H      0.177010000000     0.373610000000     0.583060000000     0.0588849  
H182     H      0.144590000000     0.373520000000     0.521510000000     0.0572288  
H183     H      0.100840000000     0.281730000000     0.672950000000     0.0295139  
H184     H      0.195690000000     0.419170000000     0.401000000000     0.182001   
H185     H      0.182840000000     0.372700000000     0.162630000000     0.0310841  
H186     H      0.141330000000     0.276060000000     0.943290000000     0.0320175  
H187     H      0.179840000000     0.279890000000     0.091640000000     0.0558091  
H188     H      0.145850000000     0.275770000000     0.024930000000     0.0532254  
H189     H      0.187460000000     0.371370000000     0.081170000000     0.058323   
H190     H      0.221970000000     0.371720000000     0.021410000000     0.0564378  
H191     H      0.174940000000     0.281790000000     0.173790000000     0.0283857  
H192     H      0.264970000000     0.417920000000     0.924790000000     0.18407    
H193     H      0.920820000000     0.251480000000     0.174080000000     0.0308493  
H194     H      0.072790000000     0.242670000000     0.245380000000     0.0289463  
H195     H      0.967840000000     0.187510000000     0.222820000000     0.0540134  
H196     H      0.020800000000     0.216810000000     0.212720000000     0.0519216  
H197     H      0.974200000000     0.278060000000     0.203290000000     0.0588139  
H198     H      0.004460000000     0.289050000000     0.267310000000     0.0591406  
H199     H      0.915600000000     0.162140000000     0.190240000000     0.0282269  
H200     H      0.080720000000     0.342520000000     0.369590000000     0.193667   
H201     H      0.256510000000     0.417370000000     0.328110000000     0.0315679  
H202     H      0.413750000000     0.416550000000     0.384840000000     0.0315642  
H203     H      0.306460000000     0.355870000000     0.376190000000     0.0561599  
H204     H      0.360560000000     0.388630000000     0.355440000000     0.0534716  
H205     H      0.310890000000     0.445140000000     0.353750000000     0.0594929  
H206     H      0.339730000000     0.453900000000     0.423240000000     0.0590132  
H207     H      0.252450000000     0.328860000000     0.349040000000     0.0295572  
H208     H      0.414210000000     0.503000000000     0.528300000000     0.182358   
H209     H      0.509520000000     0.955780000000     0.833210000000     0.0305265  
H210     H      0.477170000000     0.954380000000     0.604250000000     0.0322124  
H211     H      0.529170000000     0.048650000000     0.742360000000     0.0585318  
H212     H      0.479320000000     0.955330000000     0.685920000000     0.0541406  
H213     H      0.515350000000     0.954710000000     0.751340000000     0.0581755  
H214     H      0.567160000000     0.042810000000     0.682110000000     0.0600619  
H215     H      0.522660000000     0.048910000000     0.824320000000     0.029138   
H216     H      0.609500000000     0.092100000000     0.591190000000     0.184961   
H217     H      0.440670000000     0.959260000000     0.335630000000     0.0303983  
H218     H      0.486950000000     0.043610000000     0.096180000000     0.0323499  
H219     H      0.518800000000     0.046260000000     0.240240000000     0.0565889  
H220     H      0.486830000000     0.047220000000     0.177900000000     0.0532847  
H221     H      0.432930000000     0.956610000000     0.254090000000     0.057288   
H222     H      0.455950000000     0.948400000000     0.188240000000     0.0592602  
H223     H      0.525410000000     0.048570000000     0.322040000000     0.0315392  
H224     H      0.416080000000     0.906670000000     0.051600000000     0.183782   
H225     H      0.731130000000     0.157690000000     0.105180000000     0.0334748  
H226     H      0.578020000000     0.000420000000     0.032950000000     0.0330613  
H227     H      0.683870000000     0.048110000000     0.050400000000     0.0562644  
H228     H      0.629840000000     0.025730000000     0.066380000000     0.0540423  
H229     H      0.677910000000     0.131970000000     0.074790000000     0.0588687  
H230     H      0.650090000000     0.113630000000     0.005030000000     0.0572411  
H231     H      0.736400000000     0.074060000000     0.082580000000     0.0309143  
H232     H      0.578730000000     0.090980000000     0.895960000000     0.182011   
H233     H      0.184630000000     0.803710000000     0.668290000000     0.0306428  
H234     H      0.139260000000     0.853460000000     0.447410000000     0.0360112  
H235     H      0.176500000000     0.889840000000     0.594110000000     0.0571792  
H236     H      0.141290000000     0.854380000000     0.529020000000     0.0547049  
H237     H      0.190900000000     0.809990000000     0.586230000000     0.0593966  
H238     H      0.228010000000     0.852230000000     0.525270000000     0.0588036  
H239     H      0.170790000000     0.883350000000     0.675950000000     0.0302695  
H240     H      0.269300000000     0.843520000000     0.434260000000     0.184328   
H241     H      0.135220000000     0.766380000000     0.939110000000     0.0281152  
H242     H      0.108770000000     0.823070000000     0.177870000000     0.0331448  
H243     H      0.133870000000     0.849800000000     0.031500000000     0.0569459  
H244     H      0.101790000000     0.819920000000     0.096560000000     0.0538161  
H245     H      0.132770000000     0.761330000000     0.021250000000     0.0573073  
H246     H      0.168200000000     0.787040000000     0.083920000000     0.0601781  
H247     H      0.135780000000     0.853900000000     0.949440000000     0.0299367  
H248     H      0.214660000000     0.776370000000     0.163140000000     0.185397   
H249     H      0.402850000000     0.909350000000     0.916490000000     0.0301337  
H250     H      0.253660000000     0.915660000000     0.822590000000     0.0297319  
H251     H      0.343760000000     0.966420000000     0.904520000000     0.0551566  
H252     H      0.308220000000     0.944240000000     0.846140000000     0.0515769  
H253     H      0.349760000000     0.881870000000     0.887200000000     0.0582504  
H254     H      0.298090000000     0.859400000000     0.906000000000     0.057303   
H255     H      0.398060000000     0.993850000000     0.930470000000     0.029398   
H256     H      0.197310000000     0.791650000000     0.920800000000     0.182385   
H257     H      0.773820000000     0.617800000000     0.023340000000     0.0320094  
H258     H      0.793980000000     0.614260000000     0.793290000000     0.0316662  
H259     H      0.846690000000     0.710760000000     0.932390000000     0.0599273  
H260     H      0.795120000000     0.615330000000     0.874760000000     0.0525786  
H261     H      0.765540000000     0.617320000000     0.942080000000     0.0561187  
H262     H      0.807920000000     0.708710000000     0.873580000000     0.0575886  
H263     H      0.854360000000     0.710640000000     0.013940000000     0.0319738  
H264     H      0.826910000000     0.762060000000     0.782000000000     0.183271   
H265     H      0.846210000000     0.708770000000     0.511560000000     0.0310313  
H266     H      0.805280000000     0.612160000000     0.292820000000     0.0322772  
H267     H      0.837980000000     0.612950000000     0.442940000000     0.0558597  
H268     H      0.805130000000     0.613380000000     0.374480000000     0.0534919  
H269     H      0.854050000000     0.707570000000     0.430140000000     0.0592882  
H270     H      0.892700000000     0.701230000000     0.373610000000     0.0581476  
H271     H      0.830690000000     0.614910000000     0.524250000000     0.0289147  
H272     H      0.936710000000     0.709520000000     0.238390000000     0.192507   
H273     H      0.599580000000     0.591460000000     0.472920000000     0.027682   
H274     H      0.724660000000     0.574340000000     0.613610000000     0.0310059  
H275     H      0.616310000000     0.528610000000     0.589540000000     0.0495972  
H276     H      0.672850000000     0.548460000000     0.579780000000     0.0542045  
H277     H      0.647480000000     0.616500000000     0.518320000000     0.0567868  
H278     H      0.668250000000     0.633420000000     0.593340000000     0.0581621  
H279     H      0.568020000000     0.503580000000     0.543620000000     0.16575    
H280     H      0.740010000000     0.694330000000     0.693190000000     0.196281   
H281     H      0.916530000000     0.750130000000     0.676330000000     0.0314938  
H282     H      0.069600000000     0.743310000000     0.741810000000     0.0311378  
H283     H      0.962330000000     0.685960000000     0.729570000000     0.0555406  
H284     H      0.016800000000     0.716670000000     0.711050000000     0.0530724  
H285     H      0.970590000000     0.776520000000     0.703020000000     0.0585268  
H286     H      0.998870000000     0.785880000000     0.772490000000     0.057808   
H287     H      0.908570000000     0.660270000000     0.701180000000     0.0295228  
H288     H      0.072230000000     0.834880000000     0.878520000000     0.182831   
N1       N      0.707250000000     0.914690000000     0.749820000000    -0.181406   
N2       N      0.784860000000     0.073520000000     0.671670000000    -0.197383   
N3       N      0.874990000000     0.253220000000     0.606420000000    -0.181792   
N4       N      0.952670000000     0.408660000000     0.514070000000    -0.196586   
N5       N      0.038800000000     0.586400000000     0.438040000000    -0.181002   
N6       N      0.116320000000     0.741450000000     0.345670000000    -0.196291   
N7       N      0.625700000000     0.741010000000     0.842890000000    -0.181569   
N8       N      0.547350000000     0.580960000000     0.915780000000    -0.197783   
N9       N      0.210920000000     0.919530000000     0.271080000000    -0.180704   
N10      N      0.289240000000     0.072510000000     0.171160000000    -0.19672    
N11      N      0.451520000000     0.402080000000     0.986630000000    -0.17987    
N12      N      0.374870000000     0.248250000000     0.086190000000    -0.196533   
N13      N      0.667810000000     0.816470000000     0.427680000000    -0.180046   
N14      N      0.661020000000     0.804600000000     0.667440000000    -0.196031   
N15      N      0.661990000000     0.848390000000     0.166000000000    -0.180863   
N16      N      0.671520000000     0.850890000000     0.925140000000    -0.195893   
N17      N      0.783390000000     0.700450000000     0.188480000000    -0.182501   
N18      N      0.705930000000     0.782800000000     0.262850000000    -0.197954   
N19      N      0.550780000000     0.961060000000     0.427150000000    -0.181098   
N20      N      0.624720000000     0.880170000000     0.332390000000    -0.196574   
N21      N      0.000670000000     0.520060000000     0.603720000000    -0.178731   
N22      N      0.995580000000     0.512990000000     0.844120000000    -0.197518   
N23      N      0.991360000000     0.473910000000     0.344900000000    -0.180696   
N24      N      0.998380000000     0.477630000000     0.104240000000    -0.197458   
N25      N      0.882410000000     0.620860000000     0.116540000000    -0.180657   
N26      N      0.956610000000     0.542680000000     0.013260000000    -0.198023   
N27      N      0.328840000000     0.137120000000     0.000440000000    -0.180468   
N28      N      0.334620000000     0.146850000000     0.759260000000    -0.196497   
N29      N      0.335000000000     0.184210000000     0.258060000000    -0.180571   
N30      N      0.324790000000     0.178780000000     0.499160000000    -0.194614   
N31      N      0.374840000000     0.120730000000     0.587140000000    -0.181888   
N32      N      0.454980000000     0.042760000000     0.504780000000    -0.197973   
N33      N      0.114300000000     0.368480000000     0.840520000000    -0.180819   
N34      N      0.038610000000     0.447510000000     0.935680000000    -0.198057   
N35      N      0.283710000000     0.206530000000     0.667440000000    -0.181866   
N36      N      0.205930000000     0.282010000000     0.766220000000    -0.197631   
N37      N      0.494770000000     0.490820000000     0.580370000000    -0.184079   
N38      N      0.493390000000     0.476430000000     0.819780000000    -0.198249   
N39      N      0.509360000000     0.510910000000     0.081670000000    -0.182149   
N40      N      0.516870000000     0.518170000000     0.320110000000    -0.198829   
N41      N      0.851140000000     0.180140000000     0.009650000000    -0.180785   
N42      N      0.845330000000     0.180750000000     0.768870000000    -0.196917   
N43      N      0.802340000000     0.143400000000     0.267070000000    -0.18138    
N44      N      0.813630000000     0.145600000000     0.507530000000    -0.19715    
N45      N      0.142890000000     0.326660000000     0.434960000000    -0.180736   
N46      N      0.142270000000     0.327720000000     0.674720000000    -0.197759   
N47      N      0.177860000000     0.324420000000     0.934440000000    -0.18136    
N48      N      0.178100000000     0.327160000000     0.174210000000    -0.198276   
N49      N      0.069880000000     0.281740000000     0.273050000000    -0.181879   
N50      N      0.914210000000     0.204870000000     0.180110000000    -0.197093   
N51      N      0.408370000000     0.452130000000     0.419850000000    -0.180987   
N52      N      0.250310000000     0.371040000000     0.336980000000    -0.19671    
N53      N      0.520470000000     0.998430000000     0.594520000000    -0.180358   
N54      N      0.515030000000     0.002170000000     0.834730000000    -0.197097   
N55      N      0.472220000000     0.994210000000     0.094120000000    -0.180316   
N56      N      0.483900000000     0.003840000000     0.334900000000    -0.196941   
N57      N      0.583010000000     0.042110000000     0.000670000000    -0.180471   
N58      N      0.737820000000     0.117890000000     0.095980000000    -0.196228   
N59      N      0.181950000000     0.851410000000     0.437650000000    -0.179422   
N60      N      0.176710000000     0.842700000000     0.678140000000    -0.197149   
N61      N      0.142990000000     0.807580000000     0.178740000000    -0.181028   
N62      N      0.136440000000     0.810860000000     0.938200000000    -0.195815   
N63      N      0.244440000000     0.870830000000     0.848470000000    -0.180883   
N64      N      0.404440000000     0.953650000000     0.925700000000    -0.196677   
N65      N      0.801360000000     0.661230000000     0.784710000000    -0.180037   
N66      N      0.815020000000     0.664020000000     0.024560000000    -0.19661    
N67      N      0.848520000000     0.656490000000     0.284540000000    -0.180261   
N68      N      0.837470000000     0.661820000000     0.523860000000    -0.197544   
N69      N      0.727750000000     0.619520000000     0.621670000000    -0.179751   
N70      N      0.581910000000     0.545920000000     0.503030000000    -0.184378   
N71      N      0.065720000000     0.780710000000     0.773840000000    -0.180483   
N72      N      0.908360000000     0.703220000000     0.687160000000    -0.196523   
Ni1      Ni     0.816380000000     0.636330000000     0.657700000000     1.00425    
Ni2      Ni     0.820310000000     0.686420000000     0.649690000000     1.01591    
Ni3      Ni     0.156500000000     0.802430000000     0.805230000000     1.00914    
Ni4      Ni     0.155100000000     0.850150000000     0.810730000000     1.01131    
Ni5      Ni     0.492700000000     0.973570000000     0.967380000000     1.01835    
Ni6      Ni     0.494230000000     0.022710000000     0.961050000000     1.00228    
Ni7      Ni     0.159360000000     0.301850000000     0.308430000000     1.00206    
Ni8      Ni     0.160980000000     0.350950000000     0.300260000000     1.02918    
Ni9      Ni     0.826560000000     0.137510000000     0.135210000000     1.0124     
Ni10     Ni     0.825510000000     0.185390000000     0.141040000000     1.01178    
Ni11     Ni     0.500960000000     0.478140000000     0.446500000000     1.03359    
Ni12     Ni     0.496810000000     0.524360000000     0.453640000000     1.01414    
Ni13     Ni     0.183680000000     0.349800000000     0.800470000000     1.03396    
Ni14     Ni     0.136500000000     0.300320000000     0.807880000000     1.00323    
Ni15     Ni     0.353610000000     0.187310000000     0.632160000000     1.01491    
Ni16     Ni     0.305030000000     0.138940000000     0.626610000000     1.00951    
Ni17     Ni     0.022500000000     0.518000000000     0.977600000000     1.01308    
Ni18     Ni     0.972070000000     0.471840000000     0.970400000000     1.00005    
Ni19     Ni     0.690300000000     0.854650000000     0.299060000000     1.0245     
Ni20     Ni     0.639910000000     0.808450000000     0.293690000000     1.00633    
Ni21     Ni     0.855560000000     0.685500000000     0.151410000000     1.02756    
Ni22     Ni     0.809610000000     0.634950000000     0.156580000000     1.00944    
Ni23     Ni     0.525290000000     0.026780000000     0.461280000000     1.02831    
Ni24     Ni     0.479040000000     0.976580000000     0.467990000000     1.0024     
Ni25     Ni     0.307260000000     0.159110000000     0.125190000000     1.01362    
Ni26     Ni     0.357060000000     0.162030000000     0.133380000000     1.00521    
Ni27     Ni     0.476440000000     0.492690000000     0.950270000000     1.04147    
Ni28     Ni     0.523970000000     0.490650000000     0.951600000000     0.995272   
Ni29     Ni     0.140020000000     0.832100000000     0.311570000000     1.01309    
Ni30     Ni     0.186490000000     0.828480000000     0.303920000000     1.02103    
Ni31     Ni     0.971040000000     0.495870000000     0.471080000000     1.0083     
Ni32     Ni     0.020660000000     0.498300000000     0.477380000000     1.02274    
Ni33     Ni     0.805810000000     0.163840000000     0.641500000000     1.01172    
Ni34     Ni     0.853700000000     0.162610000000     0.634850000000     1.00899    
Ni35     Ni     0.641400000000     0.826100000000     0.793650000000     1.02289    
Ni36     Ni     0.691560000000     0.829470000000     0.798940000000     1.003      
O1       O      0.826510000000     0.638500000000     0.594450000000    -0.449792   
O2       O      0.806400000000     0.637340000000     0.720270000000    -0.449081   
O3       O      0.772430000000     0.617680000000     0.642400000000    -0.445369   
O4       O      0.860640000000     0.658300000000     0.672780000000    -0.445539   
O5       O      0.864290000000     0.705120000000     0.664230000000    -0.446628   
O6       O      0.775920000000     0.664420000000     0.635640000000    -0.42936    
O7       O      0.810970000000     0.684490000000     0.713390000000    -0.429643   
O8       O      0.829820000000     0.685230000000     0.586710000000    -0.447085   
O9       O      0.168600000000     0.812930000000     0.742720000000    -0.446384   
O10      O      0.144470000000     0.795160000000     0.868070000000    -0.442066   
O11      O      0.112830000000     0.781990000000     0.787680000000    -0.446032   
O12      O      0.199920000000     0.825880000000     0.823680000000    -0.434275   
O13      O      0.199200000000     0.870870000000     0.826320000000    -0.444938   
O14      O      0.111110000000     0.826240000000     0.795100000000    -0.433479   
O15      O      0.144630000000     0.840530000000     0.873660000000    -0.4441     
O16      O      0.165670000000     0.856720000000     0.747470000000    -0.448762   
O17      O      0.480860000000     0.972560000000     0.029780000000    -0.43513    
O18      O      0.504570000000     0.977780000000     0.904570000000    -0.447559   
O19      O      0.536300000000     0.996660000000     0.984790000000    -0.446261   
O20      O      0.449290000000     0.953610000000     0.949330000000    -0.44678    
O21      O      0.450210000000     0.999390000000     0.944660000000    -0.444136   
O22      O      0.538040000000     0.042660000000     0.977770000000    -0.432596   
O23      O      0.505600000000     0.023550000000     0.898420000000    -0.443702   
O24      O      0.482950000000     0.018760000000     0.024160000000    -0.445805   
O25      O      0.149490000000     0.302870000000     0.371380000000    -0.445619   
O26      O      0.169310000000     0.304170000000     0.244990000000    -0.448993   
O27      O      0.203510000000     0.325210000000     0.323050000000    -0.447616   
O28      O      0.115370000000     0.281700000000     0.293140000000    -0.446882   
O29      O      0.116690000000     0.327590000000     0.286700000000    -0.435548   
O30      O      0.205150000000     0.371130000000     0.314720000000    -0.445579   
O31      O      0.170500000000     0.349950000000     0.237540000000    -0.453145   
O32      O      0.151370000000     0.348790000000     0.363410000000    -0.436324   
O33      O      0.840100000000     0.148890000000     0.073470000000    -0.43504    
O34      O      0.813110000000     0.129370000000     0.197370000000    -0.448005   
O35      O      0.783420000000     0.117780000000     0.115450000000    -0.446762   
O36      O      0.869560000000     0.160280000000     0.155450000000    -0.446498   
O37      O      0.869030000000     0.205370000000     0.159240000000    -0.446041   
O38      O      0.782090000000     0.162320000000     0.122300000000    -0.441823   
O39      O      0.812900000000     0.174460000000     0.203180000000    -0.434458   
O40      O      0.838230000000     0.193150000000     0.078570000000    -0.448361   
O41      O      0.511960000000     0.489460000000     0.384310000000    -0.456015   
O42      O      0.491140000000     0.470550000000     0.509110000000    -0.445226   
O43      O      0.456990000000     0.455950000000     0.430220000000    -0.447847   
O44      O      0.543820000000     0.502920000000     0.465440000000    -0.442735   
O45      O      0.540980000000     0.546930000000     0.467440000000    -0.448469   
O46      O      0.452700000000     0.498590000000     0.440550000000    -0.436127   
O47      O      0.489210000000     0.514750000000     0.516940000000    -0.446775   
O48      O      0.505480000000     0.531180000000     0.389920000000    -0.450088   
O49      O      0.172200000000     0.350180000000     0.738540000000    -0.453349   
O50      O      0.192080000000     0.346310000000     0.862840000000    -0.440446   
O51      O      0.204530000000     0.327170000000     0.782950000000    -0.451542   
O52      O      0.159790000000     0.369220000000     0.818590000000    -0.443635   
O53      O      0.115190000000     0.323120000000     0.822720000000    -0.433089   
O54      O      0.160870000000     0.280780000000     0.792250000000    -0.447915   
O55      O      0.147290000000     0.301010000000     0.870840000000    -0.445471   
O56      O      0.128920000000     0.303110000000     0.744510000000    -0.44406    
O57      O      0.355550000000     0.176930000000     0.694670000000    -0.446499   
O58      O      0.348520000000     0.194520000000     0.569360000000    -0.441611   
O59      O      0.329740000000     0.206740000000     0.650110000000    -0.449756   
O60      O      0.374320000000     0.164770000000     0.613400000000    -0.437455   
O61      O      0.329070000000     0.119270000000     0.609940000000    -0.446811   
O62      O      0.284200000000     0.161870000000     0.643480000000    -0.433652   
O63      O      0.303600000000     0.148850000000     0.563750000000    -0.438818   
O64      O      0.309680000000     0.132140000000     0.689720000000    -0.446707   
O65      O      0.019180000000     0.526350000000     0.914670000000    -0.447697   
O66      O      0.022560000000     0.506530000000     0.039970000000    -0.447407   
O67      O      0.040800000000     0.493170000000     0.959590000000    -0.452115   
O68      O      0.000940000000     0.539920000000     0.995280000000    -0.450264   
O69      O      0.953700000000     0.497210000000     0.986230000000    -0.447715   
O70      O      0.993890000000     0.449500000000     0.954980000000    -0.446326   
O71      O      0.974750000000     0.464240000000     0.033780000000    -0.447572   
O72      O      0.972520000000     0.482640000000     0.907640000000    -0.447607   
O73      O      0.686310000000     0.862130000000     0.236100000000    -0.449036   
O74      O      0.690990000000     0.844190000000     0.361610000000    -0.43577    
O75      O      0.708360000000     0.829430000000     0.281890000000    -0.452143   
O76      O      0.668980000000     0.876900000000     0.316110000000    -0.445377   
O77      O      0.621680000000     0.834170000000     0.307790000000    -0.441396   
O78      O      0.661430000000     0.785660000000     0.279990000000    -0.44665    
O79      O      0.643090000000     0.802270000000     0.357590000000    -0.445279   
O80      O      0.640100000000     0.817960000000     0.230310000000    -0.432043   
O81      O      0.862900000000     0.681400000000     0.214510000000    -0.43205    
O82      O      0.844970000000     0.686320000000     0.088790000000    -0.446958   
O83      O      0.830030000000     0.703090000000     0.168760000000    -0.451203   
O84      O      0.878230000000     0.664670000000     0.134170000000    -0.435649   
O85      O      0.835760000000     0.617390000000     0.140690000000    -0.447445   
O86      O      0.786560000000     0.656020000000     0.171950000000    -0.433644   
O87      O      0.802500000000     0.638570000000     0.093520000000    -0.444381   
O88      O      0.819660000000     0.634500000000     0.219310000000    -0.449467   
O89      O      0.513960000000     0.027100000000     0.398810000000    -0.446673   
O90      O      0.533510000000     0.023100000000     0.524180000000    -0.430876   
O91      O      0.547270000000     0.005380000000     0.443610000000    -0.435017   
O92      O      0.500480000000     0.045000000000     0.479590000000    -0.452691   
O93      O      0.456760000000     0.998190000000     0.484670000000    -0.446112   
O94      O      0.504480000000     0.958430000000     0.451130000000    -0.446117   
O95      O      0.490160000000     0.976410000000     0.530360000000    -0.447802   
O96      O      0.470970000000     0.979860000000     0.405060000000    -0.447463   
O97      O      0.306650000000     0.146130000000     0.063660000000    -0.435854   
O98      O      0.311030000000     0.172210000000     0.187530000000    -0.446382   
O99      O      0.329800000000     0.202230000000     0.105610000000    -0.446987   
O100     O      0.287960000000     0.116110000000     0.144780000000    -0.446155   
O101     O      0.334450000000     0.118570000000     0.151740000000    -0.445145   
O102     O      0.376450000000     0.205320000000     0.114840000000    -0.441435   
O103     O      0.357250000000     0.174340000000     0.195390000000    -0.431906   
O104     O      0.353550000000     0.149630000000     0.070550000000    -0.444187   
O105     O      0.483450000000     0.504020000000     0.013170000000    -0.437356   
O106     O      0.472720000000     0.481420000000     0.887350000000    -0.449036   
O107     O      0.454670000000     0.449310000000     0.967250000000    -0.43398    
O108     O      0.501110000000     0.535950000000     0.933480000000    -0.454462   
O109     O      0.546090000000     0.535020000000     0.937500000000    -0.444617   
O110     O      0.498430000000     0.446380000000     0.965570000000    -0.442593   
O111     O      0.518300000000     0.481560000000     0.888040000000    -0.450789   
O112     O      0.526750000000     0.500160000000     0.014970000000    -0.450332   
O113     O      0.151740000000     0.843870000000     0.373610000000    -0.442353   
O114     O      0.131300000000     0.820140000000     0.248900000000    -0.446735   
O115     O      0.118370000000     0.788460000000     0.329100000000    -0.446569   
O116     O      0.164750000000     0.875480000000     0.293850000000    -0.434067   
O117     O      0.208290000000     0.872200000000     0.287230000000    -0.441521   
O118     O      0.161800000000     0.785060000000     0.320890000000    -0.442315   
O119     O      0.175000000000     0.817260000000     0.241520000000    -0.4344     
O120     O      0.194660000000     0.839670000000     0.367090000000    -0.431725   
O121     O      0.975480000000     0.508280000000     0.533780000000    -0.431907   
O122     O      0.969900000000     0.483410000000     0.408850000000    -0.446422   
O123     O      0.951700000000     0.452800000000     0.489900000000    -0.448176   
O124     O      0.993540000000     0.539280000000     0.452960000000    -0.445481   
O125     O      0.039990000000     0.541810000000     0.460280000000    -0.434044   
O126     O      0.997970000000     0.454520000000     0.494280000000    -0.441671   
O127     O      0.016700000000     0.486700000000     0.414540000000    -0.433113   
O128     O      0.021520000000     0.509960000000     0.539760000000    -0.444391   
O129     O      0.798740000000     0.153530000000     0.578230000000    -0.449435   
O130     O      0.815950000000     0.174090000000     0.704390000000    -0.448243   
O131     O      0.829440000000     0.207650000000     0.625750000000    -0.447562   
O132     O      0.785340000000     0.119920000000     0.656750000000    -0.448461   
O133     O      0.829880000000     0.118500000000     0.648850000000    -0.448623   
O134     O      0.874470000000     0.206840000000     0.621640000000    -0.434945   
O135     O      0.860180000000     0.171880000000     0.698600000000    -0.443976   
O136     O      0.844010000000     0.153410000000     0.571440000000    -0.446373   
O137     O      0.646940000000     0.840450000000     0.855390000000    -0.443691   
O138     O      0.639060000000     0.811920000000     0.732240000000    -0.443898   
O139     O      0.623200000000     0.783750000000     0.815470000000    -0.437884   
O140     O      0.662920000000     0.868740000000     0.772250000000    -0.436715   
O141     O      0.709950000000     0.872520000000     0.779460000000    -0.44612    
O142     O      0.669820000000     0.786150000000     0.818000000000    -0.444625   
O143     O      0.686680000000     0.816640000000     0.736470000000    -0.446039   
O144     O      0.693120000000     0.842080000000     0.861090000000    -0.44623    
O145     O      0.652670000000     0.876450000000     0.684900000000    -0.320347   
O146     O      0.639160000000     0.912210000000     0.703840000000    -0.234207   
O147     O      0.912590000000     0.248980000000     0.684210000000    -0.320876   
O148     O      0.953230000000     0.272920000000     0.636530000000    -0.234818   
O149     O      0.075400000000     0.586350000000     0.520930000000    -0.317509   
O150     O      0.116500000000     0.608410000000     0.473700000000    -0.233262   
O151     O      0.601820000000     0.775690000000     0.901920000000    -0.320824   
O152     O      0.554750000000     0.736610000000     0.880160000000    -0.23483    
O153     O      0.154130000000     0.944340000000     0.303160000000    -0.333423   
O154     O      0.174160000000     0.922470000000     0.348930000000    -0.222463   
O155     O      0.383390000000     0.405140000000     0.024910000000    -0.322979   
O156     O      0.395120000000     0.407130000000     0.951300000000    -0.223047   
O157     O      0.749140000000     0.872860000000     0.445880000000    -0.331396   
O158     O      0.714890000000     0.888110000000     0.425220000000    -0.22721    
O159     O      0.581000000000     0.786810000000     0.140010000000    -0.331795   
O160     O      0.595180000000     0.825120000000     0.191110000000    -0.22473    
O161     O      0.702910000000     0.638160000000     0.161270000000    -0.333509   
O162     O      0.744560000000     0.656990000000     0.115100000000    -0.226106   
O163     O      0.619520000000     0.031340000000     0.386540000000    -0.330026   
O164     O      0.606700000000     0.022790000000     0.459960000000    -0.210252   
O165     O      0.966460000000     0.553360000000     0.567420000000    -0.316543   
O166     O      0.927890000000     0.518820000000     0.612260000000    -0.23853    
O167     O      0.065890000000     0.473670000000     0.336230000000    -0.330325   
O168     O      0.025150000000     0.441710000000     0.380120000000    -0.219717   
O169     O      0.950730000000     0.692040000000     0.076830000000    -0.332582   
O170     O      0.937830000000     0.682470000000     0.150120000000    -0.22333    
O171     O      0.263890000000     0.088990000000     0.032410000000    -0.320737   
O172     O      0.247540000000     0.109800000000     0.978950000000    -0.236987   
O173     O      0.416810000000     0.206580000000     0.285640000000    -0.332676   
O174     O      0.401250000000     0.228130000000     0.232190000000    -0.225793   
O175     O      0.397140000000     0.179300000000     0.527760000000    -0.321333   
O176     O      0.444400000000     0.189010000000     0.551900000000    -0.235936   
O177     O      0.075900000000     0.327490000000     0.762600000000    -0.320462   
O178     O      0.035820000000     0.310370000000     0.811420000000    -0.234856   
O179     O      0.202670000000     0.146950000000     0.637580000000    -0.333252   
O180     O      0.243850000000     0.168460000000     0.590450000000    -0.225242   
O181     O      0.513270000000     0.432190000000     0.571700000000    -0.314766   
O182     O      0.553060000000     0.479680000000     0.547550000000    -0.3115     
O183     O      0.440450000000     0.519050000000     0.097800000000    -0.330211   
O184     O      0.437830000000     0.474790000000     0.072970000000    -0.21672    
O185     O      0.895500000000     0.158190000000     0.042320000000    -0.320053   
O186     O      0.872050000000     0.121430000000     0.988890000000    -0.237288   
O187     O      0.782650000000     0.205100000000     0.291780000000    -0.333307   
O188     O      0.759800000000     0.167040000000     0.240020000000    -0.224864   
O189     O      0.187100000000     0.398640000000     0.415120000000    -0.319986   
O190     O      0.142950000000     0.397810000000     0.436870000000    -0.233623   
O191     O      0.251850000000     0.397280000000     0.938060000000    -0.330686   
O192     O      0.207130000000     0.395170000000     0.916120000000    -0.230293   
O193     O      0.075020000000     0.325010000000     0.349100000000    -0.320095   
O194     O      0.050980000000     0.341120000000     0.300590000000    -0.231038   
O195     O      0.409640000000     0.487390000000     0.504900000000    -0.31953    
O196     O      0.384930000000     0.505460000000     0.461120000000    -0.235524   
O197     O      0.590200000000     0.076380000000     0.605660000000    -0.331905   
O198     O      0.587470000000     0.037350000000     0.563370000000    -0.209274   
O199     O      0.426430000000     0.927540000000     0.064930000000    -0.319564   
O200     O      0.451570000000     0.914930000000     0.116690000000    -0.234866   
O201     O      0.583110000000     0.079290000000     0.918550000000    -0.32048    
O202     O      0.604670000000     0.119830000000     0.966650000000    -0.237195   
O203     O      0.250200000000     0.840560000000     0.448700000000    -0.332812   
O204     O      0.248880000000     0.877780000000     0.406740000000    -0.220757   
O205     O      0.202930000000     0.786010000000     0.151540000000    -0.331985   
O206     O      0.165680000000     0.763810000000     0.204690000000    -0.22412    
O207     O      0.209980000000     0.812860000000     0.909150000000    -0.321248   
O208     O      0.248030000000     0.803980000000     0.884890000000    -0.235552   
O209     O      0.826560000000     0.743900000000     0.795710000000    -0.333126   
O210     O      0.782800000000     0.709880000000     0.758810000000    -0.226439   
O211     O      0.917180000000     0.694640000000     0.253240000000    -0.313112   
O212     O      0.916350000000     0.731800000000     0.295940000000    -0.236288   
O213     O      0.733460000000     0.673970000000     0.679640000000    -0.315517   
O214     O      0.719830000000     0.687210000000     0.614530000000    -0.235806   
O215     O      0.067300000000     0.818570000000     0.856140000000    -0.320411   
O216     O      0.045410000000     0.837630000000     0.808620000000    -0.23593    


