data_structure

_audit_creation_method RASPA-1.0
_audit_creation_date 2023-6-5
_audit_author_name 'Poobodin Mano'

_cell_length_a    49.0065
_cell_length_b    49.0185
_cell_length_c    29.3639
_cell_angle_alpha 89.978
_cell_angle_beta  90.022
_cell_angle_gamma 119.975
_cell_volume      61103.7

_symmetry_cell_setting          triclinic
_symmetry_space_group_name_Hall 'P 1'
_symmetry_space_group_name_H-M  'P 1'
_symmetry_Int_Tables_number     1

_symmetry_equiv_pos_as_xyz 'x,y,z'

loop_
_atom_site_label
_atom_site_type_symbol
_atom_site_fract_x
_atom_site_fract_y
_atom_site_fract_z
_atom_site_charge
C1       C      0.843250000000     0.663340000000     0.552070000000     0.460444   
C2       C      0.812770000000     0.658510000000     0.719920000000     0.46123    
C3       C      0.770220000000     0.633950000000     0.611890000000     0.438058   
C4       C      0.885960000000     0.688050000000     0.660270000000     0.461978   
C5       C      0.145580000000     0.818010000000     0.888310000000     0.46153    
C6       C      0.176000000000     0.843770000000     0.720470000000     0.460676   
C7       C      0.218760000000     0.862140000000     0.828670000000     0.461476   
C8       C      0.103070000000     0.799560000000     0.780250000000     0.438638   
C9       C      0.479560000000     0.993650000000     0.054620000000     0.437375   
C10      C      0.509270000000     0.998980000000     0.886560000000     0.464068   
C11      C      0.552250000000     0.023140000000     0.994240000000     0.462893   
C12      C      0.436350000000     0.969400000000     0.946980000000     0.435867   
C13      C      0.145800000000     0.324830000000     0.388160000000     0.436871   
C14      C      0.176510000000     0.330870000000     0.220480000000     0.439939   
C15      C      0.218950000000     0.355720000000     0.328760000000     0.463281   
C16      C      0.103330000000     0.300030000000     0.279710000000     0.460433   
C17      C      0.843720000000     0.172330000000     0.051980000000     0.460608   
C18      C      0.813040000000     0.147520000000     0.219800000000     0.460097   
C19      C      0.770430000000     0.130260000000     0.111480000000     0.437353   
C20      C      0.886070000000     0.189750000000     0.160180000000     0.438391   
C21      C      0.508220000000     0.509200000000     0.386650000000     0.461802   
C22      C      0.480790000000     0.482860000000     0.554980000000     0.460715   
C23      C      0.436420000000     0.465880000000     0.448480000000     0.437783   
C24      C      0.552910000000     0.526290000000     0.492900000000     0.462453   
C25      C      0.149740000000     0.332140000000     0.720170000000     0.461135   
C26      C      0.174610000000     0.327210000000     0.888270000000     0.459745   
C27      C      0.192150000000     0.301610000000     0.780650000000     0.437098   
C28      C      0.132230000000     0.357670000000     0.827840000000     0.438375   
C29      C      0.331340000000     0.150040000000     0.722540000000     0.460665   
C30      C      0.326030000000     0.174780000000     0.554500000000     0.462622   
C31      C      0.300270000000     0.192160000000     0.662130000000     0.462998   
C32      C      0.357060000000     0.132960000000     0.614770000000     0.43761    
C33      C      0.990640000000     0.507650000000     0.886100000000     0.436892   
C34      C      0.998110000000     0.483860000000     0.053820000000     0.438565   
C35      C      0.022220000000     0.465770000000     0.945480000000     0.462526   
C36      C      0.966600000000     0.525800000000     0.994440000000     0.436179   
C37      C      0.659480000000     0.841250000000     0.217860000000     0.462322   
C38      C      0.660110000000     0.814730000000     0.386290000000     0.460823   
C39      C      0.686890000000     0.796800000000     0.280040000000     0.438413   
C40      C      0.632540000000     0.859020000000     0.324050000000     0.462022   
C41      C      0.840030000000     0.660010000000     0.219850000000     0.43666    
C42      C      0.814730000000     0.664760000000     0.051940000000     0.438468   
C43      C      0.796560000000     0.689580000000     0.159600000000     0.460603   
C44      C      0.858220000000     0.635300000000     0.111960000000     0.460845   
C45      C      0.507930000000     0.993370000000     0.554540000000     0.437392   
C46      C      0.483830000000     0.999870000000     0.386670000000     0.464604   
C47      C      0.465820000000     0.024360000000     0.494750000000     0.462963   
C48      C      0.526060000000     0.968870000000     0.446410000000     0.436518   
C49      C      0.328500000000     0.147720000000     0.054580000000     0.43899    
C50      C      0.334140000000     0.177680000000     0.222530000000     0.436885   
C51      C      0.360020000000     0.220560000000     0.114580000000     0.46163    
C52      C      0.302820000000     0.104670000000     0.162190000000     0.437012   
C53      C      0.504240000000     0.511610000000     0.054710000000     0.436889   
C54      C      0.482020000000     0.480160000000     0.887010000000     0.438064   
C55      C      0.465250000000     0.438130000000     0.995450000000     0.436781   
C56      C      0.520840000000     0.553630000000     0.946140000000     0.461444   
C57      C      0.172370000000     0.844160000000     0.388220000000     0.439416   
C58      C      0.147210000000     0.814220000000     0.220290000000     0.437017   
C59      C      0.128880000000     0.771290000000     0.328140000000     0.460525   
C60      C      0.190620000000     0.887210000000     0.280650000000     0.461828   
C61      C      0.994850000000     0.481500000000     0.386130000000     0.46081    
C62      C      0.997490000000     0.510520000000     0.554180000000     0.462471   
C63      C      0.022560000000     0.553900000000     0.446800000000     0.438061   
C64      C      0.969640000000     0.437970000000     0.493720000000     0.461381   
C65      C      0.817680000000     0.147860000000     0.552130000000     0.4361     
C66      C      0.842290000000     0.177410000000     0.720170000000     0.436107   
C67      C      0.860580000000     0.220590000000     0.612570000000     0.435761   
C68      C      0.799580000000     0.104690000000     0.659730000000     0.43634    
C69      C      0.663100000000     0.844740000000     0.885740000000     0.438806   
C70      C      0.653020000000     0.812780000000     0.718120000000     0.436089   
C71      C      0.629080000000     0.771140000000     0.826740000000     0.435845   
C72      C      0.687050000000     0.886640000000     0.777200000000     0.46292    
C73      C      0.688430000000     0.935410000000     0.762510000000     0.417301   
C74      C      0.732470000000     0.929700000000     0.744680000000     0.0991671  
C75      C      0.704230000000     0.966340000000     0.746110000000    -0.209784   
C76      C      0.735050000000     0.026680000000     0.692190000000    -0.0725734  
C77      C      0.748340000000     0.960030000000     0.726450000000    -0.117768   
C78      C      0.751510000000     0.012020000000     0.708550000000     0.017545   
C79      C      0.734480000000     0.979110000000     0.727140000000     0.096896   
C80      C      0.751430000000     0.057700000000     0.676260000000     0.0733541  
C81      C      0.800120000000     0.059800000000     0.689250000000     0.0734127  
C82      C      0.784580000000     0.029320000000     0.707000000000    -0.0735244  
C83      C      0.972500000000     0.394840000000     0.527440000000     0.41859    
C84      C      0.923110000000     0.388890000000     0.506310000000     0.0981298  
C85      C      0.957510000000     0.364300000000     0.545260000000    -0.209269   
C86      C      0.922330000000     0.294140000000     0.562270000000    -0.0738477  
C87      C      0.907550000000     0.358110000000     0.522950000000    -0.11844    
C88      C      0.908190000000     0.312940000000     0.562850000000     0.0176581  
C89      C      0.924620000000     0.345460000000     0.543440000000     0.0953965  
C90      C      0.906440000000     0.263660000000     0.580160000000     0.0726624  
C91      C      0.862560000000     0.269440000000     0.598790000000     0.0720615  
C92      C      0.878040000000     0.300230000000     0.582070000000    -0.074861   
C93      C      0.083020000000     0.727840000000     0.361480000000     0.416183   
C94      C      0.126930000000     0.722500000000     0.341060000000     0.0975306  
C95      C      0.067660000000     0.697280000000     0.379230000000    -0.21013    
C96      C      0.033320000000     0.627110000000     0.396520000000    -0.0724295  
C97      C      0.111910000000     0.691700000000     0.357610000000    -0.118662   
C98      C      0.066230000000     0.646240000000     0.397210000000     0.0184555  
C99      C      0.082050000000     0.678740000000     0.377730000000     0.0958541  
C100     C      0.019050000000     0.596630000000     0.414430000000     0.0747673  
C101     C      0.068950000000     0.603110000000     0.433330000000     0.0767868  
C102     C      0.083940000000     0.633890000000     0.416650000000    -0.0725133  
C103     C      0.518330000000     0.597150000000     0.913750000000     0.415804   
C104     C      0.567760000000     0.601850000000     0.930980000000     0.0971908  
C105     C      0.533370000000     0.627590000000     0.895690000000    -0.211266   
C106     C      0.567730000000     0.696910000000     0.875580000000    -0.0737512  
C107     C      0.583420000000     0.632780000000     0.914790000000    -0.118498   
C108     C      0.582760000000     0.678880000000     0.877110000000     0.0173265  
C109     C      0.566360000000     0.646100000000     0.896110000000     0.0946858  
C110     C      0.583200000000     0.727260000000     0.857290000000     0.0728201  
C111     C      0.628840000000     0.723530000000     0.843700000000     0.0721462  
C112     C      0.613650000000     0.692650000000     0.860150000000    -0.0748145  
C113     C      0.193620000000     0.936970000000     0.268090000000     0.419074   
C114     C      0.236350000000     0.929730000000     0.247380000000     0.0991265  
C115     C      0.209630000000     0.967720000000     0.251200000000    -0.21       
C116     C      0.239320000000     0.025570000000     0.192120000000    -0.0721005  
C117     C      0.252630000000     0.960150000000     0.229330000000    -0.117566   
C118     C      0.256130000000     0.012170000000     0.211390000000     0.0181482  
C119     C      0.239300000000     0.979650000000     0.230820000000     0.0984274  
C120     C      0.255290000000     0.056410000000     0.175610000000     0.0750374  
C121     C      0.304360000000     0.060840000000     0.194400000000     0.0737248  
C122     C      0.289120000000     0.030300000000     0.212110000000    -0.0731452  
C123     C      0.405410000000     0.264740000000     0.082250000000     0.415883   
C124     C      0.359980000000     0.268170000000     0.099520000000     0.0978873  
C125     C      0.420190000000     0.295180000000     0.064250000000    -0.211478   
C126     C      0.453860000000     0.364430000000     0.044280000000    -0.0737682  
C127     C      0.374620000000     0.299110000000     0.083380000000    -0.117672   
C128     C      0.420860000000     0.345890000000     0.045860000000     0.0177608  
C129     C      0.405060000000     0.313080000000     0.064750000000     0.0951391  
C130     C      0.468230000000     0.394750000000     0.025950000000     0.0729914  
C131     C      0.418410000000     0.390040000000     0.012520000000     0.0729853  
C132     C      0.403230000000     0.359160000000     0.029000000000    -0.0738746  
C133     C      0.685120000000     0.827250000000     0.459390000000     0.417115   
C134     C      0.632010000000     0.786230000000     0.452160000000     0.0979861  
C135     C      0.683310000000     0.823730000000     0.506620000000    -0.21239    
C136     C      0.626770000000     0.800030000000     0.599180000000    -0.0740728  
C137     C      0.629370000000     0.782470000000     0.499450000000    -0.118865   
C138     C      0.652360000000     0.800250000000     0.577600000000     0.0168405  
C139     C      0.655080000000     0.801680000000     0.527250000000     0.0960897  
C140     C      0.626770000000     0.803120000000     0.646510000000     0.0729657  
C141     C      0.675770000000     0.804590000000     0.651690000000     0.0726506  
C142     C      0.676630000000     0.801760000000     0.604530000000    -0.0751925  
C143     C      0.686480000000     0.871080000000     0.151310000000     0.418346   
C144     C      0.634360000000     0.827850000000     0.145610000000     0.100291   
C145     C      0.687940000000     0.874750000000     0.103970000000    -0.209579   
C146     C      0.690200000000     0.857610000000     0.004190000000    -0.0735341  
C147     C      0.634990000000     0.831220000000     0.098420000000    -0.118225   
C148     C      0.664180000000     0.855920000000     0.026590000000     0.0190947  
C149     C      0.662210000000     0.854420000000     0.076980000000     0.0973518  
C150     C      0.689960000000     0.854930000000     0.956810000000     0.0754521  
C151     C      0.639790000000     0.851010000000     0.953120000000     0.0765966  
C152     C      0.639100000000     0.853270000000     0.000450000000    -0.0733778  
C153     C      0.793740000000     0.736380000000     0.172540000000     0.416997   
C154     C      0.750920000000     0.686480000000     0.193150000000     0.096845   
C155     C      0.777950000000     0.751210000000     0.189930000000    -0.211147   
C156     C      0.749190000000     0.779360000000     0.250600000000    -0.0718177  
C157     C      0.734830000000     0.700710000000     0.211660000000    -0.118634   
C158     C      0.731950000000     0.749410000000     0.230790000000     0.01836    
C159     C      0.748370000000     0.733540000000     0.210580000000     0.0960407  
C160     C      0.733730000000     0.794650000000     0.267370000000     0.0776258  
C161     C      0.684230000000     0.750840000000     0.248070000000     0.0741812  
C162     C      0.699000000000     0.735100000000     0.230120000000    -0.0733822  
C163     C      0.585790000000     0.862180000000     0.335590000000     0.417561   
C164     C      0.635540000000     0.904460000000     0.358010000000     0.100129   
C165     C      0.570900000000     0.877930000000     0.352950000000    -0.210542   
C166     C      0.542410000000     0.906270000000     0.414010000000    -0.0738904  
C167     C      0.621260000000     0.920480000000     0.376480000000    -0.116416   
C168     C      0.572580000000     0.923530000000     0.394840000000     0.0182558  
C169     C      0.588460000000     0.907180000000     0.374510000000     0.0960459  
C170     C      0.527340000000     0.921800000000     0.431450000000     0.0735218  
C171     C      0.571700000000     0.971290000000     0.413720000000     0.0736827  
C172     C      0.587220000000     0.956500000000     0.395170000000    -0.0735586  
C173     C      0.023190000000     0.523650000000     0.626880000000     0.420191   
C174     C      0.970380000000     0.512630000000     0.620130000000     0.0999461  
C175     C      0.021820000000     0.526070000000     0.674100000000    -0.210787   
C176     C      0.965200000000     0.494870000000     0.766880000000    -0.0728719  
C177     C      0.968200000000     0.514540000000     0.667350000000    -0.117988   
C178     C      0.991320000000     0.519660000000     0.745370000000     0.0188814  
C179     C      0.993940000000     0.520760000000     0.694970000000     0.0980602  
C180     C      0.964850000000     0.491810000000     0.814200000000     0.0747142  
C181     C      0.014690000000     0.538270000000     0.819690000000     0.0739334  
C182     C      0.015920000000     0.541890000000     0.772420000000    -0.0738364  
C183     C      0.021100000000     0.478090000000     0.319080000000     0.417053   
C184     C      0.969220000000     0.469940000000     0.314250000000     0.0978264  
C185     C      0.022260000000     0.476000000000     0.271660000000    -0.209919   
C186     C      0.972820000000     0.450760000000     0.168100000000    -0.0741839  
C187     C      0.969560000000     0.467410000000     0.266970000000    -0.119603   
C188     C      0.998400000000     0.472150000000     0.194550000000     0.0184381  
C189     C      0.996550000000     0.471180000000     0.245030000000     0.0963055  
C190     C      0.973650000000     0.454250000000     0.120830000000     0.0749602  
C191     C      0.024880000000     0.498930000000     0.125100000000     0.0744434  
C192     C      0.024940000000     0.495950000000     0.172400000000    -0.0740222  
C193     C      0.904050000000     0.637720000000     0.078540000000     0.416506   
C194     C      0.860270000000     0.588480000000     0.099190000000     0.0975417  
C195     C      0.919520000000     0.622560000000     0.061020000000    -0.209471   
C196     C      0.954410000000     0.587310000000     0.044750000000    -0.0737933  
C197     C      0.875420000000     0.572740000000     0.082910000000    -0.118162   
C198     C      0.921470000000     0.573110000000     0.044030000000     0.0181375  
C199     C      0.905310000000     0.589650000000     0.062900000000     0.0953142  
C200     C      0.969110000000     0.571480000000     0.027010000000     0.0731519  
C201     C      0.919570000000     0.527440000000     0.008550000000     0.0729142  
C202     C      0.904140000000     0.542870000000     0.025060000000    -0.0741831  
C203     C      0.306390000000     0.119960000000     0.789750000000     0.41994    
C204     C      0.357700000000     0.164650000000     0.793950000000     0.0989899  
C205     C      0.305720000000     0.116650000000     0.837070000000    -0.210136   
C206     C      0.354780000000     0.140930000000     0.940470000000    -0.0726021  
C207     C      0.357840000000     0.161700000000     0.841220000000    -0.119158   
C208     C      0.329450000000     0.137140000000     0.913790000000     0.019081   
C209     C      0.331310000000     0.138000000000     0.863380000000     0.0980051  
C210     C      0.353540000000     0.143020000000     0.987830000000     0.0764343  
C211     C      0.302590000000     0.137180000000     0.982860000000     0.0761134  
C212     C      0.302860000000     0.134530000000     0.935590000000    -0.0732504  
C213     C      0.300570000000     0.160320000000     0.481670000000     0.42038    
C214     C      0.352170000000     0.204300000000     0.488330000000     0.0992853  
C215     C      0.301950000000     0.163660000000     0.434370000000    -0.210429   
C216     C      0.307190000000     0.184950000000     0.335780000000    -0.0733509  
C217     C      0.354380000000     0.207960000000     0.441060000000    -0.118979   
C218     C      0.332120000000     0.188490000000     0.363150000000     0.0182406  
C219     C      0.329300000000     0.187150000000     0.413490000000     0.0977876  
C220     C      0.308840000000     0.182720000000     0.288580000000     0.0749315  
C221     C      0.359660000000     0.188380000000     0.294750000000     0.0739179  
C222     C      0.358920000000     0.191030000000     0.342050000000    -0.0736592  
C223     C      0.417840000000     0.024540000000     0.509790000000     0.416914   
C224     C      0.467150000000     0.069170000000     0.527580000000     0.100451   
C225     C      0.402190000000     0.039760000000     0.526520000000    -0.209289   
C226     C      0.371860000000     0.069470000000     0.581220000000    -0.0706164  
C227     C      0.452210000000     0.084450000000     0.546160000000    -0.117571   
C228     C      0.402880000000     0.086450000000     0.564640000000     0.0192747  
C229     C      0.419230000000     0.070010000000     0.545650000000     0.0963216  
C230     C      0.356810000000     0.085330000000     0.597650000000     0.077047   
C231     C      0.402800000000     0.134500000000     0.584680000000     0.0747613  
C232     C      0.418120000000     0.119490000000     0.566430000000    -0.0737309  
C233     C      0.022600000000     0.417860000000     0.930650000000     0.416224   
C234     C      0.067120000000     0.467200000000     0.912710000000     0.0991171  
C235     C      0.037980000000     0.402280000000     0.914250000000    -0.209219   
C236     C      0.068240000000     0.372000000000     0.860530000000    -0.0720773  
C237     C      0.082570000000     0.452320000000     0.894480000000    -0.117121   
C238     C      0.084990000000     0.403110000000     0.876820000000     0.0197375  
C239     C      0.068290000000     0.419360000000     0.895290000000     0.0961488  
C240     C      0.084350000000     0.357080000000     0.844530000000     0.0756414  
C241     C      0.133310000000     0.403320000000     0.857440000000     0.0772614  
C242     C      0.118050000000     0.418530000000     0.875250000000    -0.0719122  
C243     C      0.252890000000     0.194110000000     0.674570000000     0.421222   
C244     C      0.302400000000     0.237270000000     0.695800000000     0.0997163  
C245     C      0.237630000000     0.209650000000     0.691430000000    -0.20858    
C246     C      0.208640000000     0.238710000000     0.750440000000    -0.0732155  
C247     C      0.287780000000     0.253090000000     0.713760000000    -0.11741    
C248     C      0.238800000000     0.255790000000     0.731190000000     0.0189726  
C249     C      0.254930000000     0.239340000000     0.711930000000     0.0968429  
C250     C      0.193480000000     0.254380000000     0.767060000000     0.0745616  
C251     C      0.237700000000     0.303700000000     0.748200000000     0.0750431  
C252     C      0.253280000000     0.288750000000     0.730430000000    -0.0729378  
C253     C      0.478020000000     0.453250000000     0.621720000000     0.416796   
C254     C      0.468970000000     0.496410000000     0.627050000000     0.0985964  
C255     C      0.475930000000     0.449770000000     0.669070000000    -0.211054   
C256     C      0.495930000000     0.467530000000     0.768370000000    -0.0743233  
C257     C      0.466350000000     0.493220000000     0.674280000000    -0.119568   
C258     C      0.471360000000     0.468940000000     0.746250000000     0.0177417  
C259     C      0.470560000000     0.470180000000     0.695880000000     0.0966111  
C260     C      0.498590000000     0.470270000000     0.815710000000     0.0742947  
C261     C      0.452100000000     0.473740000000     0.819920000000     0.0759221  
C262     C      0.448940000000     0.471440000000     0.772610000000    -0.073597   
C263     C      0.511060000000     0.539110000000     0.320240000000     0.415851   
C264     C      0.518490000000     0.494970000000     0.314050000000     0.099292   
C265     C      0.512500000000     0.542460000000     0.272860000000    -0.211681   
C266     C      0.490910000000     0.524190000000     0.173700000000    -0.0741327  
C267     C      0.520550000000     0.498060000000     0.266800000000    -0.119048   
C268     C      0.515660000000     0.522830000000     0.195360000000     0.0168894  
C269     C      0.516830000000     0.521540000000     0.245660000000     0.0958428  
C270     C      0.487950000000     0.521420000000     0.126370000000     0.0733362  
C271     C      0.534520000000     0.518130000000     0.121380000000     0.0723731  
C272     C      0.537950000000     0.520410000000     0.168620000000    -0.075944   
C273     C      0.855780000000     0.158310000000     0.979550000000     0.416902   
C274     C      0.848380000000     0.202440000000     0.985920000000     0.0979686  
C275     C      0.858650000000     0.162090000000     0.932320000000    -0.21114    
C276     C      0.830240000000     0.190180000000     0.839570000000    -0.0743644  
C277     C      0.850730000000     0.206550000000     0.938740000000    -0.11922    
C278     C      0.854310000000     0.187480000000     0.860960000000     0.0174745  
C279     C      0.855300000000     0.185870000000     0.911320000000     0.0963564  
C280     C      0.827170000000     0.187780000000     0.792260000000     0.073016   
C281     C      0.872340000000     0.182100000000     0.786540000000     0.0730029  
C282     C      0.875870000000     0.184020000000     0.833850000000    -0.0743676  
C283     C      0.808690000000     0.117980000000     0.287330000000     0.416404   
C284     C      0.802460000000     0.162910000000     0.291390000000     0.0971609  
C285     C      0.806950000000     0.115240000000     0.334760000000    -0.211054   
C286     C      0.828610000000     0.133230000000     0.433060000000    -0.0744907  
C287     C      0.800310000000     0.160570000000     0.338770000000    -0.119539   
C288     C      0.804980000000     0.136590000000     0.411480000000     0.0171223  
C289     C      0.803390000000     0.137040000000     0.361060000000     0.0955342  
C290     C      0.831980000000     0.136150000000     0.480310000000     0.0730193  
C291     C      0.788060000000     0.143920000000     0.485630000000     0.0719715  
C292     C      0.784240000000     0.141460000000     0.438390000000    -0.075478   
C293     C      0.163320000000     0.358150000000     0.647620000000     0.417625   
C294     C      0.120520000000     0.305860000000     0.653890000000     0.0983226  
C295     C      0.159760000000     0.356990000000     0.600330000000    -0.210204   
C296     C      0.133480000000     0.300250000000     0.507690000000    -0.0736323  
C297     C      0.116640000000     0.303890000000     0.606670000000    -0.119      
C298     C      0.135410000000     0.326730000000     0.528890000000     0.0183449  
C299     C      0.136790000000     0.329420000000     0.579270000000     0.0973799  
C300     C      0.135940000000     0.299530000000     0.460390000000     0.074698   
C301     C      0.140230000000     0.349770000000     0.454310000000     0.0754912  
C302     C      0.138190000000     0.351400000000     0.501580000000    -0.0727972  
C303     C      0.204970000000     0.352200000000     0.955320000000     0.415644   
C304     C      0.159310000000     0.301610000000     0.960120000000     0.0976078  
C305     C      0.208210000000     0.353170000000     0.002690000000    -0.211142   
C306     C      0.191120000000     0.357020000000     0.101650000000    -0.0727558  
C307     C      0.162180000000     0.301750000000     0.007410000000    -0.118893   
C308     C      0.187420000000     0.330020000000     0.079720000000     0.0183272  
C309     C      0.186380000000     0.328060000000     0.029300000000     0.0962366  
C310     C      0.188410000000     0.357290000000     0.148960000000     0.0775774  
C311     C      0.180390000000     0.305490000000     0.153620000000     0.0759987  
C312     C      0.182590000000     0.304290000000     0.106310000000    -0.074042   
C313     C      0.060000000000     0.301900000000     0.245010000000     0.416882   
C314     C      0.054800000000     0.252900000000     0.266600000000     0.0979531  
C315     C      0.029500000000     0.286500000000     0.227130000000    -0.21028    
C316     C      0.959530000000     0.251110000000     0.210990000000    -0.0733383  
C317     C      0.024000000000     0.236910000000     0.249900000000    -0.117965   
C318     C      0.978310000000     0.236940000000     0.210410000000     0.0190544  
C319     C      0.010960000000     0.253620000000     0.229360000000     0.0958374  
C320     C      0.929100000000     0.235310000000     0.193040000000     0.075295   
C321     C      0.934680000000     0.191280000000     0.174700000000     0.0765278  
C322     C      0.965490000000     0.206700000000     0.191490000000    -0.072463   
C323     C      0.267250000000     0.356210000000     0.344110000000     0.416545   
C324     C      0.262080000000     0.400540000000     0.362110000000     0.0991744  
C325     C      0.298090000000     0.371620000000     0.360960000000    -0.20952    
C326     C      0.358360000000     0.401830000000     0.415240000000    -0.0720899  
C327     C      0.292250000000     0.415970000000     0.380870000000    -0.11736    
C328     C      0.343870000000     0.418530000000     0.399210000000     0.0188093  
C329     C      0.311050000000     0.401810000000     0.380250000000     0.0957348  
C330     C      0.389320000000     0.417970000000     0.431450000000     0.0747332  
C331     C      0.391640000000     0.466860000000     0.419560000000     0.0750498  
C332     C      0.361260000000     0.451580000000     0.401460000000    -0.0728375  
C333     C      0.522300000000     0.025450000000     0.814350000000     0.417355   
C334     C      0.512440000000     0.972990000000     0.820130000000     0.101067   
C335     C      0.525030000000     0.024570000000     0.767080000000    -0.212033   
C336     C      0.541460000000     0.019470000000     0.668420000000    -0.0749741  
C337     C      0.514720000000     0.971320000000     0.772950000000    -0.1185     
C338     C      0.519450000000     0.994650000000     0.695380000000     0.0185158  
C339     C      0.520450000000     0.997070000000     0.745780000000     0.0978654  
C340     C      0.538060000000     0.018060000000     0.621100000000     0.0725024  
C341     C      0.492170000000     0.967760000000     0.626490000000     0.0740578  
C342     C      0.495060000000     0.968260000000     0.673810000000    -0.0740467  
C343     C      0.497800000000     0.026320000000     0.314440000000     0.41742    
C344     C      0.454470000000     0.974280000000     0.320190000000     0.10086    
C345     C      0.494290000000     0.025460000000     0.267140000000    -0.212472   
C346     C      0.472990000000     0.020580000000     0.168310000000    -0.0753444  
C347     C      0.450610000000     0.972620000000     0.272990000000    -0.119915   
C348     C      0.469710000000     0.995640000000     0.195450000000     0.017703   
C349     C      0.471060000000     0.998150000000     0.245830000000     0.0975116  
C350     C      0.474880000000     0.018960000000     0.121000000000     0.072219   
C351     C      0.469510000000     0.968260000000     0.126770000000     0.0736881  
C352     C      0.467200000000     0.968960000000     0.174080000000    -0.0743784  
C353     C      0.600060000000     0.022440000000     0.008820000000     0.41737    
C354     C      0.596340000000     0.067640000000     0.026530000000     0.100386   
C355     C      0.631070000000     0.037340000000     0.025020000000    -0.208569   
C356     C      0.691910000000     0.066900000000     0.078260000000    -0.0709715  
C357     C      0.626710000000     0.082600000000     0.044590000000    -0.11727    
C358     C      0.677900000000     0.083990000000     0.061950000000     0.0193465  
C359     C      0.644880000000     0.067750000000     0.043740000000     0.0960509  
C360     C      0.722950000000     0.082660000000     0.094320000000     0.0762389  
C361     C      0.726340000000     0.131920000000     0.081220000000     0.0744362  
C362     C      0.695920000000     0.117020000000     0.063330000000    -0.0742548  
C363     C      0.180310000000     0.873560000000     0.653190000000     0.419139   
C364     C      0.187420000000     0.829180000000     0.648850000000     0.0989323  
C365     C      0.182440000000     0.876640000000     0.605770000000    -0.209287   
C366     C      0.161480000000     0.858960000000     0.507230000000    -0.0712342  
C367     C      0.189970000000     0.831870000000     0.601530000000    -0.118425   
C368     C      0.185240000000     0.855850000000     0.528870000000     0.0197512  
C369     C      0.186640000000     0.855280000000     0.579340000000     0.0977802  
C370     C      0.158100000000     0.855910000000     0.460000000000     0.0795325  
C371     C      0.202280000000     0.848570000000     0.454690000000     0.0759234  
C372     C      0.206120000000     0.851150000000     0.501970000000    -0.0731602  
C373     C      0.132360000000     0.831200000000     0.960510000000     0.420761   
C374     C      0.141890000000     0.788400000000     0.954600000000     0.098515   
C375     C      0.129480000000     0.827480000000     0.007730000000    -0.209641   
C376     C      0.113410000000     0.806940000000     0.106530000000    -0.0718238  
C377     C      0.139410000000     0.784300000000     0.001820000000    -0.118759   
C378     C      0.134780000000     0.803040000000     0.079540000000     0.018372   
C379     C      0.133790000000     0.804390000000     0.029060000000     0.0976576  
C380     C      0.117100000000     0.809340000000     0.153830000000     0.0760134  
C381     C      0.161890000000     0.803010000000     0.148450000000     0.0736205  
C382     C      0.158740000000     0.800280000000     0.101170000000    -0.0741837  
C383     C      0.262030000000     0.908090000000     0.862190000000     0.419076   
C384     C      0.267690000000     0.864410000000     0.841580000000     0.0984509  
C385     C      0.292620000000     0.923560000000     0.879960000000    -0.208332   
C386     C      0.362870000000     0.958180000000     0.896980000000    -0.0726839  
C387     C      0.298490000000     0.879540000000     0.858140000000    -0.118144   
C388     C      0.343870000000     0.925280000000     0.897730000000     0.0181     
C389     C      0.311320000000     0.909330000000     0.878360000000     0.0956602  
C390     C      0.393410000000     0.972580000000     0.914710000000     0.0739037  
C391     C      0.387250000000     0.922820000000     0.933560000000     0.0725978  
C392     C      0.356410000000     0.907700000000     0.917030000000    -0.0746573  
C393     C      0.799940000000     0.632310000000     0.792300000000     0.419409   
C394     C      0.809000000000     0.684450000000     0.786080000000     0.0981176  
C395     C      0.797140000000     0.633250000000     0.839530000000    -0.210307   
C396     C      0.780970000000     0.637920000000     0.938270000000    -0.0739827  
C397     C      0.806630000000     0.686190000000     0.833290000000    -0.119165   
C398     C      0.802310000000     0.663100000000     0.911150000000     0.0181077  
C399     C      0.801280000000     0.660630000000     0.860690000000     0.0967998  
C400     C      0.784650000000     0.639370000000     0.985580000000     0.0742123  
C401     C      0.829390000000     0.690470000000     0.979930000000     0.0773813  
C402     C      0.826230000000     0.689900000000     0.932640000000    -0.0718995  
C403     C      0.847880000000     0.638080000000     0.484770000000     0.417429   
C404     C      0.854660000000     0.689450000000     0.480520000000     0.0988212  
C405     C      0.850140000000     0.637250000000     0.437360000000    -0.209911   
C406     C      0.829240000000     0.634090000000     0.338770000000    -0.0743886  
C407     C      0.857330000000     0.689420000000     0.433210000000    -0.118251   
C408     C      0.852910000000     0.660930000000     0.360490000000     0.0183997  
C409     C      0.854230000000     0.662810000000     0.410970000000     0.0967598  
C410     C      0.825870000000     0.633850000000     0.291550000000     0.0740431  
C411     C      0.869890000000     0.685430000000     0.286390000000     0.075391   
C412     C      0.873720000000     0.686600000000     0.333660000000    -0.0727837  
C413     C      0.602630000000     0.528780000000     0.503340000000     0.419804   
C414     C      0.595850000000     0.571270000000     0.526940000000     0.0992811  
C415     C      0.633430000000     0.544230000000     0.520110000000    -0.210552   
C416     C      0.690860000000     0.571980000000     0.580040000000    -0.0721797  
C417     C      0.626330000000     0.587010000000     0.544830000000    -0.11804    
C418     C      0.678020000000     0.589510000000     0.561610000000     0.018389   
C419     C      0.645580000000     0.573460000000     0.541920000000     0.0965233  
C420     C      0.721580000000     0.587210000000     0.596980000000     0.0768849  
C421     C      0.727030000000     0.636970000000     0.580170000000     0.073455   
C422     C      0.696570000000     0.622470000000     0.562120000000    -0.0742381  
C423     C      0.929340000000     0.685790000000     0.694250000000     0.419478   
C424     C      0.934690000000     0.734910000000     0.673090000000     0.100147   
C425     C      0.959870000000     0.701090000000     0.712210000000    -0.208766   
C426     C      0.029990000000     0.737000000000     0.729930000000    -0.0722941  
C427     C      0.965450000000     0.750780000000     0.689800000000    -0.117456   
C428     C      0.010870000000     0.750800000000     0.730030000000     0.0194746  
C429     C      0.978390000000     0.734010000000     0.710410000000     0.0976432  
C430     C      0.060420000000     0.753270000000     0.748000000000     0.0754973  
C431     C      0.053960000000     0.796840000000     0.765810000000     0.0778606  
C432     C      0.023210000000     0.780980000000     0.748970000000    -0.0713414  
F1       F      0.659310000000     0.924550000000     0.780730000000    -0.446585   
F2       F      0.004390000000     0.412020000000     0.531050000000    -0.437974   
F3       F      0.067980000000     0.744730000000     0.364790000000    -0.445314   
F4       F      0.486360000000     0.580380000000     0.911490000000    -0.448652   
F5       F      0.165020000000     0.926970000000     0.287620000000    -0.442771   
F6       F      0.421260000000     0.248600000000     0.079890000000    -0.449822   
F7       F      0.713150000000     0.849310000000     0.441500000000    -0.446068   
F8       F      0.712390000000     0.891220000000     0.175690000000    -0.441764   
F9       F      0.822280000000     0.754930000000     0.152820000000    -0.444793   
F10      F      0.567380000000     0.833950000000     0.315000000000    -0.447275   
F11      F      0.050840000000     0.528640000000     0.608770000000    -0.440178   
F12      F      0.047000000000     0.483300000000     0.343050000000    -0.440834   
F13      F      0.918960000000     0.669610000000     0.074910000000    -0.445024   
F14      F      0.280570000000     0.098760000000     0.766160000000    -0.435306   
F15      F      0.273520000000     0.136750000000     0.499890000000    -0.435614   
F16      F      0.400040000000     0.995380000000     0.491470000000    -0.4469     
F17      F      0.993400000000     0.400010000000     0.948870000000    -0.448632   
F18      F      0.234740000000     0.165470000000     0.654910000000    -0.433026   
F19      F      0.483770000000     0.433020000000     0.597540000000    -0.443435   
F20      F      0.506310000000     0.559840000000     0.344890000000    -0.448052   
F21      F      0.858730000000     0.134440000000     0.997890000000    -0.444966   
F22      F      0.812620000000     0.096340000000     0.263730000000    -0.443418   
F23      F      0.186440000000     0.385410000000     0.666020000000    -0.444414   
F24      F      0.226640000000     0.377550000000     0.931380000000    -0.446487   
F25      F      0.076790000000     0.333780000000     0.241050000000    -0.44532    
F26      F      0.256130000000     0.327130000000     0.325630000000    -0.448262   
F27      F      0.526420000000     0.052640000000     0.832960000000    -0.44728    
F28      F      0.521190000000     0.053290000000     0.333090000000    -0.44788    
F29      F      0.588110000000     0.993120000000     0.990820000000    -0.444459   
F30      F      0.175680000000     0.894710000000     0.676910000000    -0.436828   
F31      F      0.128390000000     0.854400000000     0.941980000000    -0.437269   
F32      F      0.244980000000     0.922950000000     0.865580000000    -0.435162   
F33      F      0.796170000000     0.605190000000     0.773920000000    -0.440764   
F34      F      0.843340000000     0.612310000000     0.508440000000    -0.442552   
F35      F      0.592370000000     0.500560000000     0.482470000000    -0.442992   
F36      F      0.912460000000     0.653900000000     0.697870000000    -0.438413   
H1       H      0.737720000000     0.068120000000     0.664380000000     0.0320609  
H2       H      0.744230000000     0.915950000000     0.743040000000     0.0262497  
H3       H      0.798770000000     0.019860000000     0.720170000000     0.053902   
H4       H      0.771200000000     0.968000000000     0.711240000000     0.0657433  
H5       H      0.709580000000     0.014400000000     0.691150000000     0.0566602  
H6       H      0.692670000000     0.980160000000     0.749070000000     0.119367   
H7       H      0.825660000000     0.072160000000     0.689040000000     0.0322866  
H8       H      0.918210000000     0.249940000000     0.578490000000     0.0325464  
H9       H      0.908730000000     0.397580000000     0.491140000000     0.0263201  
H10      H      0.866350000000     0.313960000000     0.584570000000     0.052912   
H11      H      0.882200000000     0.344350000000     0.519410000000     0.063989   
H12      H      0.945330000000     0.302520000000     0.547240000000     0.0580583  
H13      H      0.971790000000     0.355870000000     0.561340000000     0.120182   
H14      H      0.839190000000     0.260570000000     0.612930000000     0.0311629  
H15      H      0.993580000000     0.582600000000     0.412650000000     0.0350946  
H16      H      0.150110000000     0.731450000000     0.326190000000     0.0260039  
H17      H      0.109320000000     0.647880000000     0.419320000000     0.0562497  
H18      H      0.123760000000     0.678170000000     0.354290000000     0.0659005  
H19      H      0.018500000000     0.635210000000     0.381360000000     0.0587246  
H20      H      0.044840000000     0.688610000000     0.395030000000     0.119947   
H21      H      0.083680000000     0.594540000000     0.447600000000     0.0423478  
H22      H      0.570630000000     0.740240000000     0.857100000000     0.0330414  
H23      H      0.582040000000     0.592590000000     0.944750000000     0.0245171  
H24      H      0.626240000000     0.679770000000     0.859000000000     0.0517659  
H25      H      0.608820000000     0.646040000000     0.917470000000     0.063216   
H26      H      0.544290000000     0.688110000000     0.889140000000     0.0570859  
H27      H      0.518880000000     0.636090000000     0.880600000000     0.118061   
H28      H      0.652770000000     0.733220000000     0.831360000000     0.0305023  
H29      H      0.241260000000     0.065830000000     0.161450000000     0.0353587  
H30      H      0.247520000000     0.915480000000     0.244840000000     0.0266417  
H31      H      0.303270000000     0.021360000000     0.227160000000     0.0545612  
H32      H      0.275270000000     0.967940000000     0.213460000000     0.0659874  
H33      H      0.213900000000     0.012380000000     0.189480000000     0.060791   
H34      H      0.198730000000     0.982130000000     0.254630000000     0.122431   
H35      H      0.329870000000     0.074050000000     0.196190000000     0.03341    
H36      H      0.493760000000     0.408120000000     0.025700000000     0.0317177  
H37      H      0.336380000000     0.258380000000     0.113250000000     0.0268378  
H38      H      0.377770000000     0.345890000000     0.027930000000     0.0540473  
H39      H      0.361970000000     0.311880000000     0.086060000000     0.0654562  
H40      H      0.468880000000     0.356060000000     0.057800000000     0.056522   
H41      H      0.443230000000     0.304150000000     0.049130000000     0.117664   
H42      H      0.403810000000     0.399350000000     0.000250000000     0.0340323  
H43      H      0.607040000000     0.803910000000     0.661780000000     0.0346553  
H44      H      0.611300000000     0.771250000000     0.431990000000     0.031103   
H45      H      0.696580000000     0.801470000000     0.589150000000     0.0571101  
H46      H      0.607220000000     0.764860000000     0.514150000000     0.0669367  
H47      H      0.607570000000     0.798980000000     0.579500000000     0.0557451  
H48      H      0.703740000000     0.839070000000     0.527020000000     0.119572   
H49      H      0.695460000000     0.806440000000     0.671060000000     0.0320292  
H50      H      0.710120000000     0.855330000000     0.940910000000     0.0344627  
H51      H      0.612960000000     0.809020000000     0.160490000000     0.0324505  
H52      H      0.618760000000     0.852340000000     0.016540000000     0.0595551  
H53      H      0.614600000000     0.814900000000     0.078720000000     0.0677324  
H54      H      0.710030000000     0.859560000000     0.023240000000     0.0608423  
H55      H      0.709280000000     0.893220000000     0.088490000000     0.123114   
H56      H      0.619530000000     0.848280000000     0.934300000000     0.0388709  
H57      H      0.748130000000     0.817940000000     0.281790000000     0.0436348  
H58      H      0.739630000000     0.661050000000     0.195450000000     0.0256241  
H59      H      0.684540000000     0.712170000000     0.214810000000     0.053644   
H60      H      0.712190000000     0.685930000000     0.227600000000     0.0648524  
H61      H      0.774600000000     0.791110000000     0.253320000000     0.061856   
H62      H      0.788970000000     0.776540000000     0.186750000000     0.121596   
H63      H      0.658750000000     0.739060000000     0.246160000000     0.0340619  
H64      H      0.503910000000     0.907430000000     0.445470000000     0.0331963  
H65      H      0.660930000000     0.915540000000     0.361080000000     0.0349228  
H66      H      0.610300000000     0.970980000000     0.380300000000     0.0560965  
H67      H      0.635950000000     0.942850000000     0.393160000000     0.0674913  
H68      H      0.530370000000     0.880820000000     0.415850000000     0.057728   
H69      H      0.545620000000     0.867130000000     0.349110000000     0.118732   
H70      H      0.583810000000     0.996800000000     0.412690000000     0.0362476  
H71      H      0.944600000000     0.471710000000     0.829330000000     0.0351568  
H72      H      0.949620000000     0.507100000000     0.600200000000     0.0297783  
H73      H      0.036330000000     0.561670000000     0.757100000000     0.0585356  
H74      H      0.946320000000     0.510710000000     0.682180000000     0.0698981  
H75      H      0.945730000000     0.477090000000     0.747190000000     0.0566906  
H76      H      0.042260000000     0.530920000000     0.694330000000     0.121509   
H77      H      0.034590000000     0.555640000000     0.839230000000     0.0327453  
H78      H      0.953060000000     0.437560000000     0.101780000000     0.0358974  
H79      H      0.948020000000     0.467660000000     0.329480000000     0.0262893  
H80      H      0.045170000000     0.513070000000     0.191610000000     0.0591347  
H81      H      0.949190000000     0.463800000000     0.247640000000     0.0648197  
H82      H      0.952030000000     0.431750000000     0.183910000000     0.0551546  
H83      H      0.043380000000     0.478540000000     0.255860000000     0.122195   
H84      H      0.045550000000     0.518260000000     0.109480000000     0.0333192  
H85      H      0.994610000000     0.583350000000     0.028680000000     0.0322968  
H86      H      0.837090000000     0.574250000000     0.114060000000     0.0258215  
H87      H      0.878730000000     0.531100000000     0.022500000000     0.054068   
H88      H      0.863670000000     0.547390000000     0.086420000000     0.0640126  
H89      H      0.968970000000     0.610340000000     0.059700000000     0.0573784  
H90      H      0.942310000000     0.636730000000     0.045170000000     0.119349   
H91      H      0.905170000000     0.504030000000     0.994520000000     0.0325549  
H92      H      0.373890000000     0.146570000000     0.007200000000     0.0393979  
H93      H      0.378450000000     0.183960000000     0.778430000000     0.0275482  
H94      H      0.282840000000     0.131750000000     0.916130000000     0.0622066  
H95      H      0.378110000000     0.178760000000     0.860420000000     0.0683994  
H96      H      0.375630000000     0.142710000000     0.924810000000     0.057907   
H97      H      0.284970000000     0.097710000000     0.853100000000     0.126077   
H98      H      0.281850000000     0.135890000000     0.998190000000     0.0349054  
H99      H      0.288690000000     0.179320000000     0.268790000000     0.0356552  
H100     H      0.372470000000     0.220590000000     0.508250000000     0.0282363  
H101     H      0.378660000000     0.193660000000     0.362070000000     0.0557903  
H102     H      0.375790000000     0.226720000000     0.426170000000     0.0676715  
H103     H      0.286250000000     0.183350000000     0.350800000000     0.062305   
H104     H      0.282020000000     0.147110000000     0.414120000000     0.123384   
H105     H      0.380450000000     0.189510000000     0.279900000000     0.0350803  
H106     H      0.332780000000     0.071260000000     0.609680000000     0.0442013  
H107     H      0.492670000000     0.081390000000     0.529130000000     0.0280064  
H108     H      0.441630000000     0.134050000000     0.553070000000     0.0540504  
H109     H      0.466770000000     0.107310000000     0.561510000000     0.0657517  
H110     H      0.359090000000     0.044010000000     0.582060000000     0.0615948  
H111     H      0.376800000000     0.027770000000     0.523740000000     0.119874   
H112     H      0.415580000000     0.160040000000     0.585060000000     0.0324504  
H113     H      0.070440000000     0.332990000000     0.832680000000     0.0330246  
H114     H      0.079240000000     0.492710000000     0.910990000000     0.026504   
H115     H      0.132450000000     0.442110000000     0.888430000000     0.0567321  
H116     H      0.105450000000     0.466920000000     0.879190000000     0.0670883  
H117     H      0.042780000000     0.359070000000     0.859560000000     0.0575417  
H118     H      0.026090000000     0.376910000000     0.917190000000     0.117786   
H119     H      0.158860000000     0.416250000000     0.857190000000     0.0419648  
H120     H      0.170090000000     0.240150000000     0.781250000000     0.0339083  
H121     H      0.327840000000     0.248820000000     0.698570000000     0.0279592  
H122     H      0.276310000000     0.303110000000     0.715350000000     0.0561546  
H123     H      0.302290000000     0.275730000000     0.729810000000     0.0661878  
H124     H      0.196690000000     0.213290000000     0.753030000000     0.0603206  
H125     H      0.212300000000     0.198410000000     0.687870000000     0.122318   
H126     H      0.249730000000     0.329190000000     0.746410000000     0.0393654  
H127     H      0.518510000000     0.470050000000     0.831380000000     0.0330624  
H128     H      0.466320000000     0.515160000000     0.612000000000     0.0281157  
H129     H      0.429370000000     0.472180000000     0.756720000000     0.0582306  
H130     H      0.462280000000     0.509570000000     0.693870000000     0.068838   
H131     H      0.513810000000     0.465710000000     0.749120000000     0.0596849  
H132     H      0.478890000000     0.431380000000     0.684700000000     0.119565   
H133     H      0.434570000000     0.476320000000     0.838950000000     0.0405617  
H134     H      0.467900000000     0.521560000000     0.110990000000     0.0358765  
H135     H      0.520740000000     0.475900000000     0.328780000000     0.0325184  
H136     H      0.557620000000     0.519690000000     0.184190000000     0.0543841  
H137     H      0.523850000000     0.481330000000     0.246840000000     0.0670092  
H138     H      0.473160000000     0.525980000000     0.193330000000     0.0595001  
H139     H      0.509910000000     0.561140000000     0.257530000000     0.119068   
H140     H      0.551990000000     0.515620000000     0.102070000000     0.0311914  
H141     H      0.807630000000     0.189050000000     0.777230000000     0.0322536  
H142     H      0.844150000000     0.218660000000     0.005660000000     0.0272398  
H143     H      0.895040000000     0.182240000000     0.849150000000     0.0580126  
H144     H      0.848450000000     0.225520000000     0.923760000000     0.0669292  
H145     H      0.813000000000     0.192740000000     0.859350000000     0.0547899  
H146     H      0.862210000000     0.145620000000     0.912180000000     0.119963   
H147     H      0.889150000000     0.178730000000     0.766880000000     0.0324164  
H148     H      0.851130000000     0.134240000000     0.495480000000     0.0331195  
H149     H      0.800870000000     0.182120000000     0.275790000000     0.0259542  
H150     H      0.765410000000     0.143790000000     0.423000000000     0.0539264  
H151     H      0.797590000000     0.177960000000     0.357890000000     0.0647987  
H152     H      0.845250000000     0.129610000000     0.413430000000     0.0593255  
H153     H      0.808830000000     0.096350000000     0.350860000000     0.12076    
H154     H      0.771820000000     0.148270000000     0.505100000000     0.0313632  
H155     H      0.135280000000     0.278980000000     0.445510000000     0.0360829  
H156     H      0.104740000000     0.285210000000     0.673610000000     0.0268681  
H157     H      0.139320000000     0.372100000000     0.516690000000     0.0634904  
H158     H      0.098260000000     0.282280000000     0.591680000000     0.0665363  
H159     H      0.131460000000     0.280720000000     0.527620000000     0.056715   
H160     H      0.175820000000     0.377260000000     0.580210000000     0.121319   
H161     H      0.143050000000     0.369690000000     0.434520000000     0.0394698  
H162     H      0.190500000000     0.378330000000     0.164430000000     0.0391019  
H163     H      0.139650000000     0.281030000000     0.944850000000     0.0272726  
H164     H      0.180010000000     0.283130000000     0.090590000000     0.0556179  
H165     H      0.144720000000     0.281860000000     0.026810000000     0.0670715  
H166     H      0.194760000000     0.377380000000     0.082260000000     0.0614302  
H167     H      0.227520000000     0.373730000000     0.018510000000     0.119636   
H168     H      0.175990000000     0.284790000000     0.172830000000     0.0368126  
H169     H      0.915470000000     0.247190000000     0.194600000000     0.0334592  
H170     H      0.063820000000     0.238860000000     0.281960000000     0.0278827  
H171     H      0.979160000000     0.194950000000     0.189170000000     0.0568945  
H172     H      0.010500000000     0.211560000000     0.253560000000     0.0668025  
H173     H      0.967920000000     0.274120000000     0.225980000000     0.058863   
H174     H      0.020850000000     0.300510000000     0.210770000000     0.120032   
H175     H      0.925700000000     0.167880000000     0.160670000000     0.0419509  
H176     H      0.399650000000     0.404110000000     0.442990000000     0.0372915  
H177     H      0.248590000000     0.412570000000     0.363710000000     0.0282384  
H178     H      0.351990000000     0.465990000000     0.388540000000     0.0556357  
H179     H      0.300280000000     0.438730000000     0.396400000000     0.066615   
H180     H      0.346010000000     0.376370000000     0.415760000000     0.058509   
H181     H      0.311680000000     0.359820000000     0.358110000000     0.117885   
H182     H      0.404080000000     0.492400000000     0.420260000000     0.0390178  
H183     H      0.555240000000     0.038080000000     0.601560000000     0.0328417  
H184     H      0.507310000000     0.952180000000     0.839630000000     0.0320886  
H185     H      0.477450000000     0.948620000000     0.693450000000     0.0553562  
H186     H      0.511510000000     0.949760000000     0.757780000000     0.0685828  
H187     H      0.560920000000     0.040110000000     0.683830000000     0.0581234  
H188     H      0.529500000000     0.045000000000     0.747160000000     0.119148   
H189     H      0.472380000000     0.947240000000     0.611320000000     0.0345427  
H190     H      0.478070000000     0.039070000000     0.101320000000     0.0334831  
H191     H      0.438440000000     0.953620000000     0.339690000000     0.0302594  
H192     H      0.464800000000     0.949220000000     0.193870000000     0.055635   
H193     H      0.432020000000     0.951230000000     0.257820000000     0.0663688  
H194     H      0.474590000000     0.041450000000     0.183560000000     0.057943   
H195     H      0.510580000000     0.045720000000     0.247210000000     0.119092   
H196     H      0.468360000000     0.947500000000     0.111750000000     0.0348277  
H197     H      0.732870000000     0.068530000000     0.106280000000     0.0418844  
H198     H      0.583380000000     0.080200000000     0.028260000000     0.0282849  
H199     H      0.687070000000     0.131680000000     0.050010000000     0.0535816  
H200     H      0.635420000000     0.105580000000     0.059770000000     0.065343   
H201     H      0.679100000000     0.041440000000     0.079260000000     0.0609582  
H202     H      0.644120000000     0.024990000000     0.022110000000     0.120594   
H203     H      0.739210000000     0.157460000000     0.081400000000     0.0314003  
H204     H      0.138830000000     0.857630000000     0.444840000000     0.0452712  
H205     H      0.189260000000     0.810060000000     0.664310000000     0.0270557  
H206     H      0.225050000000     0.849020000000     0.517400000000     0.0570507  
H207     H      0.193150000000     0.814780000000     0.582350000000     0.0667912  
H208     H      0.144710000000     0.862410000000     0.526800000000     0.0646151  
H209     H      0.180310000000     0.895410000000     0.589790000000     0.125315   
H210     H      0.218590000000     0.844320000000     0.435220000000     0.0339633  
H211     H      0.100470000000     0.813060000000     0.173350000000     0.0420426  
H212     H      0.146980000000     0.772710000000     0.935040000000     0.0259256  
H213     H      0.175890000000     0.797430000000     0.081600000000     0.0539776  
H214     H      0.142430000000     0.765810000000     0.016950000000     0.0649756  
H215     H      0.094260000000     0.808720000000     0.091160000000     0.0637201  
H216     H      0.125130000000     0.843540000000     0.027600000000     0.124348   
H217     H      0.181360000000     0.801650000000     0.163590000000     0.0316974  
H218     H      0.407320000000     0.998050000000     0.912910000000     0.0376571  
H219     H      0.258880000000     0.841290000000     0.826600000000     0.0261019  
H220     H      0.342530000000     0.882310000000     0.919710000000     0.0526524  
H221     H      0.312140000000     0.867810000000     0.854740000000     0.0643916  
H222     H      0.354620000000     0.972910000000     0.881920000000     0.0605355  
H223     H      0.301190000000     0.946340000000     0.895820000000     0.121081   
H224     H      0.395980000000     0.908200000000     0.947730000000     0.0320539  
H225     H      0.768040000000     0.619070000000     0.005200000000     0.0322613  
H226     H      0.813850000000     0.705110000000     0.766390000000     0.026495   
H227     H      0.843340000000     0.709830000000     0.912950000000     0.0590614  
H228     H      0.809500000000     0.707660000000     0.848300000000     0.0661274  
H229     H      0.761860000000     0.616940000000     0.923000000000     0.0569303  
H230     H      0.793010000000     0.612960000000     0.859540000000     0.121296   
H231     H      0.848830000000     0.711340000000     0.994970000000     0.0438325  
H232     H      0.806660000000     0.612870000000     0.276330000000     0.0328477  
H233     H      0.856310000000     0.710300000000     0.496010000000     0.028168   
H234     H      0.892570000000     0.707660000000     0.349160000000     0.0601298  
H235     H      0.860410000000     0.709670000000     0.414070000000     0.0682968  
H236     H      0.812530000000     0.613800000000     0.358270000000     0.0592064  
H237     H      0.848170000000     0.616440000000     0.421330000000     0.120008   
H238     H      0.886130000000     0.706040000000     0.266980000000     0.0411077  
H239     H      0.730550000000     0.572610000000     0.610470000000     0.0430016  
H240     H      0.581770000000     0.582570000000     0.530680000000     0.0283704  
H241     H      0.688020000000     0.637150000000     0.547800000000     0.0533558  
H242     H      0.634350000000     0.609350000000     0.561760000000     0.0647351  
H243     H      0.677290000000     0.546530000000     0.581700000000     0.061873   
H244     H      0.647680000000     0.533240000000     0.515610000000     0.121258   
H245     H      0.740610000000     0.662480000000     0.579340000000     0.0318716  
H246     H      0.074410000000     0.741770000000     0.746730000000     0.0334572  
H247     H      0.925760000000     0.749070000000     0.657840000000     0.0282397  
H248     H      0.009240000000     0.792420000000     0.751160000000     0.0584918  
H249     H      0.978960000000     0.776130000000     0.686220000000     0.068733   
H250     H      0.021910000000     0.713990000000     0.715140000000     0.0589325  
H251     H      0.968510000000     0.687030000000     0.728380000000     0.120708   
H252     H      0.062530000000     0.820220000000     0.779710000000     0.0444657  
N1       N      0.702550000000     0.917200000000     0.761880000000    -0.246937   
N2       N      0.783720000000     0.074090000000     0.674670000000    -0.195318   
N3       N      0.955320000000     0.407310000000     0.508710000000    -0.245173   
N4       N      0.876570000000     0.251210000000     0.597620000000    -0.195338   
N5       N      0.112790000000     0.740620000000     0.343150000000    -0.246231   
N6       N      0.036760000000     0.584520000000     0.431980000000    -0.193289   
N7       N      0.535480000000     0.584150000000     0.930690000000    -0.247219   
N8       N      0.613690000000     0.740660000000     0.842170000000    -0.195646   
N9       N      0.206800000000     0.917910000000     0.265850000000    -0.246081   
N10      N      0.287560000000     0.074000000000     0.176970000000    -0.194748   
N11      N      0.375230000000     0.251100000000     0.099210000000    -0.247162   
N12      N      0.450660000000     0.407660000000     0.010880000000    -0.195496   
N13      N      0.659330000000     0.809140000000     0.432280000000    -0.246052   
N14      N      0.651560000000     0.806350000000     0.672410000000    -0.194977   
N15      N      0.660100000000     0.847110000000     0.171960000000    -0.24495    
N16      N      0.664540000000     0.850760000000     0.931580000000    -0.194108   
N17      N      0.780450000000     0.704140000000     0.174580000000    -0.246567   
N18      N      0.701510000000     0.780670000000     0.265680000000    -0.193355   
N19      N      0.617970000000     0.875200000000     0.338620000000    -0.245309   
N20      N      0.541760000000     0.954060000000     0.431010000000    -0.194816   
N21      N      0.997280000000     0.516080000000     0.600040000000    -0.245134   
N22      N      0.989820000000     0.512840000000     0.840310000000    -0.194536   
N23      N      0.995020000000     0.476060000000     0.340200000000    -0.245379   
N24      N      0.999090000000     0.478740000000     0.099610000000    -0.194077   
N25      N      0.874310000000     0.620720000000     0.096960000000    -0.246114   
N26      N      0.951820000000     0.541600000000     0.009610000000    -0.195195   
N27      N      0.331880000000     0.144530000000     0.768370000000    -0.245488   
N28      N      0.328020000000     0.142130000000     0.008720000000    -0.19398    
N29      N      0.325940000000     0.180010000000     0.508520000000    -0.245314   
N30      N      0.334450000000     0.183410000000     0.268320000000    -0.194678   
N31      N      0.450200000000     0.039250000000     0.510240000000    -0.246327   
N32      N      0.372220000000     0.117600000000     0.599490000000    -0.193838   
N33      N      0.037180000000     0.450200000000     0.930040000000    -0.246883   
N34      N      0.116630000000     0.372670000000     0.842840000000    -0.193563   
N35      N      0.285170000000     0.207760000000     0.677020000000    -0.244636   
N36      N      0.207820000000     0.286630000000     0.765750000000    -0.193967   
N37      N      0.475510000000     0.477130000000     0.600880000000    -0.245849   
N38      N      0.477310000000     0.474200000000     0.841190000000    -0.194316   
N39      N      0.513070000000     0.514840000000     0.340680000000    -0.245506   
N40      N      0.509140000000     0.517570000000     0.100520000000    -0.195216   
N41      N      0.849770000000     0.177860000000     0.006170000000    -0.246066   
N42      N      0.847570000000     0.182940000000     0.766030000000    -0.195182   
N43      N      0.807550000000     0.142390000000     0.265790000000    -0.246052   
N44      N      0.812310000000     0.142190000000     0.506320000000    -0.195453   
N45      N      0.144340000000     0.332360000000     0.674240000000    -0.246016   
N46      N      0.140130000000     0.324470000000     0.433980000000    -0.194028   
N47      N      0.180000000000     0.326930000000     0.934190000000    -0.245926   
N48      N      0.182280000000     0.331420000000     0.174660000000    -0.193155   
N49      N      0.072780000000     0.285140000000     0.264180000000    -0.246242   
N50      N      0.916590000000     0.205460000000     0.175550000000    -0.193631   
N51      N      0.249390000000     0.370710000000     0.344520000000    -0.246944   
N52      N      0.405790000000     0.450240000000     0.433680000000    -0.194085   
N53      N      0.515130000000     0.999440000000     0.840690000000    -0.244988   
N54      N      0.513020000000     0.992830000000     0.600410000000    -0.194595   
N55      N      0.478530000000     0.000480000000     0.340790000000    -0.246574   
N56      N      0.474130000000     0.993400000000     0.100500000000    -0.194648   
N57      N      0.582840000000     0.037620000000     0.009410000000    -0.245805   
N58      N      0.739930000000     0.114930000000     0.096070000000    -0.194088   
N59      N      0.181710000000     0.849240000000     0.674560000000    -0.245188   
N60      N      0.177880000000     0.850010000000     0.434000000000    -0.192956   
N61      N      0.139480000000     0.812330000000     0.934110000000    -0.245068   
N62      N      0.141770000000     0.808380000000     0.174500000000    -0.193936   
N63      N      0.249410000000     0.878370000000     0.843740000000    -0.244975   
N64      N      0.405710000000     0.955010000000     0.932170000000    -0.194662   
N65      N      0.806760000000     0.658140000000     0.765740000000    -0.245333   
N66      N      0.809280000000     0.665050000000     0.006130000000    -0.193054   
N67      N      0.849060000000     0.663680000000     0.506180000000    -0.245181   
N68      N      0.845560000000     0.659610000000     0.265620000000    -0.194009   
N69      N      0.583750000000     0.542070000000     0.507190000000    -0.245402   
N70      N      0.739640000000     0.619460000000     0.596790000000    -0.19374    
N71      N      0.916590000000     0.702680000000     0.675450000000    -0.245221   
N72      N      0.072510000000     0.783170000000     0.765120000000    -0.193273   
Ni1      Ni     0.826300000000     0.636020000000     0.639620000000     1.05511    
Ni2      Ni     0.829850000000     0.685970000000     0.632420000000     1.00233    
Ni3      Ni     0.162960000000     0.807840000000     0.800890000000     1.00044    
Ni4      Ni     0.158820000000     0.853920000000     0.807950000000     1.06027    
Ni5      Ni     0.492560000000     0.971260000000     0.973690000000     1.02103    
Ni6      Ni     0.496060000000     0.021250000000     0.967500000000     1.02323    
Ni7      Ni     0.159900000000     0.303060000000     0.307510000000     1.01798    
Ni8      Ni     0.162390000000     0.352590000000     0.301120000000     1.03128    
Ni9      Ni     0.829410000000     0.136350000000     0.132580000000     1.04006    
Ni10     Ni     0.827080000000     0.183460000000     0.139110000000     1.0079     
Ni11     Ni     0.496040000000     0.472720000000     0.466430000000     1.03676    
Ni12     Ni     0.493150000000     0.519390000000     0.475240000000     1.02264    
Ni13     Ni     0.185670000000     0.354350000000     0.800760000000     1.04224    
Ni14     Ni     0.138650000000     0.304890000000     0.807660000000     1.00342    
Ni15     Ni     0.353310000000     0.186100000000     0.641980000000     1.00464    
Ni16     Ni     0.304030000000     0.138900000000     0.635140000000     1.05963    
Ni17     Ni     0.019130000000     0.519320000000     0.972730000000     1.00997    
Ni18     Ni     0.969610000000     0.472190000000     0.967200000000     1.01913    
Ni19     Ni     0.684740000000     0.850950000000     0.306610000000     1.04383    
Ni20     Ni     0.634740000000     0.804880000000     0.297510000000     1.0192     
Ni21     Ni     0.850590000000     0.687360000000     0.132340000000     1.04379    
Ni22     Ni     0.804150000000     0.637420000000     0.139470000000     1.00164    
Ni23     Ni     0.519440000000     0.021370000000     0.467640000000     1.02171    
Ni24     Ni     0.472410000000     0.971820000000     0.473580000000     1.02184    
Ni25     Ni     0.306770000000     0.161770000000     0.135220000000     1.01261    
Ni26     Ni     0.355980000000     0.163530000000     0.141920000000     1.02272    
Ni27     Ni     0.468810000000     0.495790000000     0.973270000000     1.02722    
Ni28     Ni     0.517350000000     0.495970000000     0.968470000000     1.00845    
Ni29     Ni     0.136550000000     0.830990000000     0.307770000000     1.04311    
Ni30     Ni     0.182990000000     0.827440000000     0.300740000000     1.00402    
Ni31     Ni     0.970960000000     0.493730000000     0.466140000000     1.00477    
Ni32     Ni     0.021250000000     0.498150000000     0.474210000000     1.05558    
Ni33     Ni     0.806630000000     0.164150000000     0.639430000000     1.00729    
Ni34     Ni     0.853410000000     0.161120000000     0.632860000000     1.01098    
Ni35     Ni     0.633660000000     0.828520000000     0.799860000000     1.0229     
Ni36     Ni     0.682460000000     0.829180000000     0.803930000000     1.01052    
O1       O      0.838110000000     0.639570000000     0.576650000000    -0.404816   
O2       O      0.814600000000     0.635650000000     0.701860000000    -0.403314   
O3       O      0.783030000000     0.617390000000     0.621830000000    -0.437909   
O4       O      0.869800000000     0.657920000000     0.657370000000    -0.400603   
O5       O      0.873150000000     0.704580000000     0.650030000000    -0.451736   
O6       O      0.786320000000     0.664090000000     0.614850000000    -0.446651   
O7       O      0.818140000000     0.682430000000     0.695480000000    -0.451304   
O8       O      0.841430000000     0.686250000000     0.570060000000    -0.452126   
O9       O      0.151220000000     0.799600000000     0.863970000000    -0.450709   
O10      O      0.174500000000     0.819180000000     0.738510000000    -0.452059   
O11      O      0.206200000000     0.832830000000     0.818540000000    -0.452878   
O12      O      0.119470000000     0.785830000000     0.783260000000    -0.446091   
O13      O      0.115560000000     0.828900000000     0.790180000000    -0.43616    
O14      O      0.202350000000     0.875870000000     0.825710000000    -0.398916   
O15      O      0.170600000000     0.862220000000     0.745000000000    -0.403664   
O16      O      0.147180000000     0.842570000000     0.870180000000    -0.402942   
O17      O      0.481950000000     0.971090000000     0.036530000000    -0.445991   
O18      O      0.503320000000     0.974680000000     0.910440000000    -0.44587    
O19      O      0.536470000000     0.993110000000     0.989410000000    -0.407141   
O20      O      0.448970000000     0.952730000000     0.957470000000    -0.44767    
O21      O      0.452720000000     0.999560000000     0.949130000000    -0.443166   
O22      O      0.539060000000     0.039640000000     0.986400000000    -0.448234   
O23      O      0.508210000000     0.022100000000     0.905230000000    -0.408353   
O24      O      0.483840000000     0.017190000000     0.030190000000    -0.449245   
O25      O      0.148830000000     0.302600000000     0.370230000000    -0.444271   
O26      O      0.171000000000     0.306710000000     0.244370000000    -0.439971   
O27      O      0.203730000000     0.325680000000     0.323760000000    -0.408711   
O28      O      0.116330000000     0.283790000000     0.290700000000    -0.451684   
O29      O      0.119230000000     0.330180000000     0.282180000000    -0.408269   
O30      O      0.205290000000     0.371730000000     0.320610000000    -0.454578   
O31      O      0.175020000000     0.353810000000     0.239020000000    -0.440023   
O32      O      0.149740000000     0.348220000000     0.363650000000    -0.443489   
O33      O      0.840620000000     0.147070000000     0.069970000000    -0.408376   
O34      O      0.818240000000     0.128800000000     0.195640000000    -0.407898   
O35      O      0.785560000000     0.115300000000     0.116200000000    -0.43592    
O36      O      0.873010000000     0.160480000000     0.149490000000    -0.434738   
O37      O      0.870270000000     0.204120000000     0.157730000000    -0.447826   
O38      O      0.784130000000     0.159870000000     0.119950000000    -0.449462   
O39      O      0.814680000000     0.172060000000     0.201340000000    -0.452977   
O40      O      0.839560000000     0.191660000000     0.076460000000    -0.452279   
O41      O      0.505920000000     0.483980000000     0.403640000000    -0.447942   
O42      O      0.486100000000     0.464630000000     0.529830000000    -0.405938   
O43      O      0.451970000000     0.451280000000     0.451860000000    -0.443186   
O44      O      0.539820000000     0.497150000000     0.481630000000    -0.403551   
O45      O      0.536750000000     0.540370000000     0.492350000000    -0.44903    
O46      O      0.449880000000     0.495430000000     0.457380000000    -0.442667   
O47      O      0.481790000000     0.507370000000     0.537500000000    -0.453866   
O48      O      0.504490000000     0.528230000000     0.412360000000    -0.408691   
O49      O      0.174220000000     0.355100000000     0.738530000000    -0.408545   
O50      O      0.193940000000     0.350420000000     0.863460000000    -0.409025   
O51      O      0.206470000000     0.331800000000     0.782530000000    -0.440378   
O52      O      0.161880000000     0.373670000000     0.819560000000    -0.436996   
O53      O      0.117430000000     0.327590000000     0.823330000000    -0.44446    
O54      O      0.162900000000     0.285470000000     0.791440000000    -0.445992   
O55      O      0.149350000000     0.304860000000     0.870460000000    -0.452127   
O56      O      0.131150000000     0.308150000000     0.744390000000    -0.452473   
O57      O      0.354180000000     0.174710000000     0.704270000000    -0.451722   
O58      O      0.349290000000     0.194250000000     0.579200000000    -0.450713   
O59      O      0.330480000000     0.206620000000     0.660180000000    -0.450854   
O60      O      0.372900000000     0.162590000000     0.623190000000    -0.447682   
O61      O      0.326970000000     0.117970000000     0.619270000000    -0.436965   
O62      O      0.284350000000     0.162880000000     0.651520000000    -0.396927   
O63      O      0.303800000000     0.149560000000     0.572430000000    -0.402786   
O64      O      0.307450000000     0.131380000000     0.698280000000    -0.404506   
O65      O      0.014220000000     0.527220000000     0.910190000000    -0.447703   
O66      O      0.020830000000     0.508280000000     0.034910000000    -0.446658   
O67      O      0.038230000000     0.495500000000     0.953210000000    -0.453447   
O68      O      0.996770000000     0.540130000000     0.991760000000    -0.448064   
O69      O      0.950340000000     0.496490000000     0.984050000000    -0.447257   
O70      O      0.992210000000     0.450980000000     0.950800000000    -0.408494   
O71      O      0.973790000000     0.465080000000     0.030320000000    -0.441033   
O72      O      0.968620000000     0.482430000000     0.904420000000    -0.444689   
O73      O      0.682770000000     0.859590000000     0.243370000000    -0.406765   
O74      O      0.683550000000     0.839270000000     0.368980000000    -0.41094    
O75      O      0.703420000000     0.826090000000     0.290390000000    -0.436288   
O76      O      0.662750000000     0.872780000000     0.322690000000    -0.444307   
O77      O      0.616070000000     0.829780000000     0.313540000000    -0.408721   
O78      O      0.656700000000     0.782980000000     0.281640000000    -0.445653   
O79      O      0.636660000000     0.796380000000     0.360940000000    -0.447896   
O80      O      0.636040000000     0.816560000000     0.234990000000    -0.447144   
O81      O      0.858690000000     0.683890000000     0.195460000000    -0.439727   
O82      O      0.839440000000     0.687660000000     0.069940000000    -0.434798   
O83      O      0.825920000000     0.706020000000     0.149700000000    -0.409665   
O84      O      0.872190000000     0.665420000000     0.114990000000    -0.408331   
O85      O      0.828850000000     0.618760000000     0.121940000000    -0.452346   
O86      O      0.782550000000     0.659410000000     0.156950000000    -0.451881   
O87      O      0.796010000000     0.640950000000     0.076400000000    -0.445333   
O88      O      0.815370000000     0.637080000000     0.201820000000    -0.447721   
O89      O      0.527450000000     0.016860000000     0.530280000000    -0.449269   
O90      O      0.508250000000     0.022670000000     0.405410000000    -0.40853    
O91      O      0.495520000000     0.040430000000     0.486850000000    -0.44864    
O92      O      0.540370000000     0.999040000000     0.448950000000    -0.443797   
O93      O      0.496760000000     0.952620000000     0.456920000000    -0.448032   
O94      O      0.451100000000     0.994330000000     0.489730000000    -0.408387   
O95      O      0.465160000000     0.975670000000     0.410460000000    -0.447327   
O96      O      0.482780000000     0.971160000000     0.536340000000    -0.446285   
O97      O      0.306330000000     0.150790000000     0.072580000000    -0.447558   
O98      O      0.310300000000     0.172740000000     0.198300000000    -0.447813   
O99      O      0.329930000000     0.205600000000     0.119240000000    -0.451242   
O100     O      0.286940000000     0.118130000000     0.151690000000    -0.445994   
O101     O      0.333020000000     0.120190000000     0.160050000000    -0.447592   
O102     O      0.375700000000     0.206640000000     0.123190000000    -0.410699   
O103     O      0.356920000000     0.175700000000     0.204310000000    -0.444065   
O104     O      0.351830000000     0.151420000000     0.079070000000    -0.43869    
O105     O      0.478940000000     0.507960000000     0.035940000000    -0.444311   
O106     O      0.462000000000     0.483790000000     0.910520000000    -0.440248   
O107     O      0.449420000000     0.452350000000     0.990710000000    -0.447318   
O108     O      0.491240000000     0.539040000000     0.954860000000    -0.410267   
O109     O      0.536690000000     0.539410000000     0.950910000000    -0.452627   
O110     O      0.494910000000     0.452710000000     0.987000000000    -0.448213   
O111     O      0.507250000000     0.483730000000     0.905920000000    -0.446663   
O112     O      0.524240000000     0.508050000000     0.031080000000    -0.450541   
O113     O      0.147710000000     0.842450000000     0.370170000000    -0.434342   
O114     O      0.128490000000     0.819390000000     0.244660000000    -0.439234   
O115     O      0.114920000000     0.787460000000     0.325160000000    -0.408446   
O116     O      0.161230000000     0.874310000000     0.290380000000    -0.408463   
O117     O      0.204620000000     0.871030000000     0.283390000000    -0.451066   
O118     O      0.158250000000     0.784090000000     0.318160000000    -0.453012   
O119     O      0.171890000000     0.816010000000     0.238370000000    -0.448484   
O120     O      0.191060000000     0.838980000000     0.363830000000    -0.444663   
O121     O      0.971500000000     0.482680000000     0.403770000000    -0.453663   
O122     O      0.973680000000     0.504960000000     0.529310000000    -0.449632   
O123     O      0.992400000000     0.537360000000     0.449120000000    -0.444413   
O124     O      0.952810000000     0.450400000000     0.483270000000    -0.452748   
O125     O      0.999780000000     0.454540000000     0.491310000000    -0.400374   
O126     O      0.039420000000     0.541470000000     0.457040000000    -0.437448   
O127     O      0.020770000000     0.509290000000     0.536510000000    -0.403847   
O128     O      0.018530000000     0.486880000000     0.411100000000    -0.404964   
O129     O      0.799150000000     0.153410000000     0.576220000000    -0.448554   
O130     O      0.817220000000     0.174840000000     0.702210000000    -0.447559   
O131     O      0.831300000000     0.207770000000     0.623160000000    -0.447109   
O132     O      0.785030000000     0.120230000000     0.655170000000    -0.445473   
O133     O      0.829230000000     0.118060000000     0.651560000000    -0.448196   
O134     O      0.874630000000     0.204460000000     0.614690000000    -0.447985   
O135     O      0.861580000000     0.173220000000     0.695640000000    -0.447174   
O136     O      0.842050000000     0.149070000000     0.570520000000    -0.446937   
O137     O      0.639120000000     0.840630000000     0.862580000000    -0.440315   
O138     O      0.631360000000     0.816310000000     0.737140000000    -0.443867   
O139     O      0.613540000000     0.785290000000     0.818390000000    -0.448075   
O140     O      0.657030000000     0.871980000000     0.782270000000    -0.409299   
O141     O      0.702530000000     0.872370000000     0.785120000000    -0.452275   
O142     O      0.659130000000     0.785800000000     0.821820000000    -0.448116   
O143     O      0.676890000000     0.816800000000     0.741420000000    -0.450241   
O144     O      0.684880000000     0.841570000000     0.866480000000    -0.44594    


