data_structure

_audit_creation_method RASPA-1.0
_audit_creation_date 2023-6-5
_audit_author_name 'Poobodin Mano'

_cell_length_a    48.6965
_cell_length_b    48.9479
_cell_length_c    29.4794
_cell_angle_alpha 89.9778
_cell_angle_beta  90.0222
_cell_angle_gamma 119.971
_cell_volume      60870.6

_symmetry_cell_setting          triclinic
_symmetry_space_group_name_Hall 'P 1'
_symmetry_space_group_name_H-M  'P 1'
_symmetry_Int_Tables_number     1

_symmetry_equiv_pos_as_xyz 'x,y,z'

loop_
_atom_site_label
_atom_site_type_symbol
_atom_site_fract_x
_atom_site_fract_y
_atom_site_fract_z
_atom_site_charge
C1       C      0.844390000000     0.674820000000     0.544760000000     0.435821   
C2       C      0.818510000000     0.663920000000     0.714180000000     0.438866   
C3       C      0.772980000000     0.640980000000     0.610190000000     0.438819   
C4       C      0.891060000000     0.698180000000     0.649600000000     0.437999   
C5       C      0.152680000000     0.813690000000     0.879800000000     0.435313   
C6       C      0.180940000000     0.842310000000     0.712160000000     0.435163   
C7       C      0.225390000000     0.856720000000     0.818470000000     0.438203   
C8       C      0.108280000000     0.799320000000     0.773150000000     0.434601   
C9       C      0.511700000000     0.988290000000     0.896900000000     0.437005   
C10      C      0.481010000000     0.983810000000     0.064200000000     0.437734   
C11      C      0.438340000000     0.959010000000     0.956240000000     0.435247   
C12      C      0.554790000000     0.014030000000     0.004110000000     0.435417   
C13      C      0.162130000000     0.338550000000     0.359480000000     0.436219   
C14      C      0.185450000000     0.335710000000     0.190510000000     0.437419   
C15      C      0.233270000000     0.367210000000     0.293340000000     0.435828   
C16      C      0.114670000000     0.307420000000     0.257310000000     0.437704   
C17      C      0.845760000000     0.174280000000     0.047430000000     0.436499   
C18      C      0.823120000000     0.149410000000     0.216680000000     0.434619   
C19      C      0.775010000000     0.129270000000     0.114640000000     0.438544   
C20      C      0.893440000000     0.193830000000     0.150570000000     0.435682   
C21      C      0.503780000000     0.511780000000     0.394630000000     0.439425   
C22      C      0.479830000000     0.486180000000     0.562610000000     0.438842   
C23      C      0.436610000000     0.471500000000     0.451940000000     0.440853   
C24      C      0.552230000000     0.529780000000     0.500520000000     0.43735    
C25      C      0.157260000000     0.338630000000     0.691220000000     0.434488   
C26      C      0.179070000000     0.329940000000     0.858760000000     0.43505    
C27      C      0.198010000000     0.305920000000     0.751520000000     0.434482   
C28      C      0.137950000000     0.362140000000     0.799510000000     0.434188   
C29      C      0.331270000000     0.171870000000     0.544790000000     0.434489   
C30      C      0.337210000000     0.149740000000     0.713270000000     0.436262   
C31      C      0.360370000000     0.128430000000     0.607510000000     0.436622   
C32      C      0.308310000000     0.193280000000     0.651540000000     0.436636   
C33      C      0.000870000000     0.480240000000     0.047270000000     0.435803   
C34      C      0.996120000000     0.505600000000     0.879710000000     0.433773   
C35      C      0.970100000000     0.522840000000     0.987380000000     0.434066   
C36      C      0.027110000000     0.463480000000     0.939570000000     0.436964   
C37      C      0.666040000000     0.836270000000     0.224310000000     0.439527   
C38      C      0.668780000000     0.818310000000     0.393640000000     0.44165    
C39      C      0.697770000000     0.795790000000     0.290850000000     0.436256   
C40      C      0.640280000000     0.855820000000     0.330020000000     0.442135   
C41      C      0.842650000000     0.661440000000     0.214230000000     0.442074   
C42      C      0.822490000000     0.665310000000     0.045800000000     0.436487   
C43      C      0.805890000000     0.692460000000     0.154640000000     0.438621   
C44      C      0.861950000000     0.632260000000     0.109080000000     0.437435   
C45      C      0.510620000000     0.985580000000     0.564940000000     0.434939   
C46      C      0.489750000000     0.990470000000     0.395840000000     0.434609   
C47      C      0.470010000000     0.016510000000     0.500510000000     0.433206   
C48      C      0.530800000000     0.959420000000     0.460710000000     0.433262   
C49      C      0.328530000000     0.146730000000     0.045360000000     0.434648   
C50      C      0.335710000000     0.177280000000     0.212880000000     0.437085   
C51      C      0.357050000000     0.219560000000     0.105140000000     0.435012   
C52      C      0.306730000000     0.104120000000     0.154200000000     0.436945   
C53      C      0.492310000000     0.512870000000     0.061870000000     0.436353   
C54      C      0.475020000000     0.483440000000     0.893890000000     0.436057   
C55      C      0.457340000000     0.440700000000     0.002280000000     0.438165   
C56      C      0.511000000000     0.556600000000     0.954340000000     0.436604   
C57      C      0.178570000000     0.843070000000     0.379970000000     0.433493   
C58      C      0.156140000000     0.813360000000     0.212050000000     0.433268   
C59      C      0.137350000000     0.770210000000     0.319600000000     0.434589   
C60      C      0.197550000000     0.886270000000     0.272440000000     0.434697   
C61      C      0.005320000000     0.509790000000     0.547820000000     0.436431   
C62      C      0.999130000000     0.480820000000     0.379620000000     0.433243   
C63      C      0.975320000000     0.436860000000     0.486710000000     0.434242   
C64      C      0.028830000000     0.553220000000     0.441330000000     0.437422   
C65      C      0.827430000000     0.144800000000     0.548350000000     0.437058   
C66      C      0.849140000000     0.177820000000     0.715260000000     0.434315   
C67      C      0.869860000000     0.219020000000     0.605220000000     0.43692    
C68      C      0.807000000000     0.104110000000     0.657740000000     0.435086   
C69      C      0.663620000000     0.845680000000     0.893510000000     0.436704   
C70      C      0.650880000000     0.818040000000     0.724950000000     0.43634    
C71      C      0.625250000000     0.773380000000     0.831650000000     0.434148   
C72      C      0.688810000000     0.890000000000     0.787740000000     0.437623   
C73      C      0.695220000000     0.942110000000     0.778640000000     0.105045   
C74      C      0.733500000000     0.930060000000     0.749790000000     0.0734943  
C75      C      0.712060000000     0.972330000000     0.759530000000    -0.0993941  
C76      C      0.741210000000     0.028650000000     0.697160000000    -0.0850982  
C77      C      0.750280000000     0.959750000000     0.729740000000    -0.0898422  
C78      C      0.757220000000     0.013270000000     0.712680000000     0.032197   
C79      C      0.739590000000     0.981370000000     0.734070000000     0.0412318  
C80      C      0.758160000000     0.058890000000     0.678590000000     0.0723022  
C81      C      0.806390000000     0.058720000000     0.687970000000     0.0721926  
C82      C      0.790280000000     0.028790000000     0.707660000000    -0.0853311  
C83      C      0.914800000000     0.261580000000     0.565860000000     0.104296   
C84      C      0.872950000000     0.268320000000     0.594500000000     0.0726177  
C85      C      0.929800000000     0.292450000000     0.548770000000    -0.0994561  
C86      C      0.964990000000     0.363060000000     0.534170000000    -0.0854323  
C87      C      0.887640000000     0.299180000000     0.578190000000    -0.0898989  
C88      C      0.931860000000     0.344300000000     0.535760000000     0.0323123  
C89      C      0.916310000000     0.311640000000     0.554630000000     0.0405267  
C90      C      0.979100000000     0.393640000000     0.516650000000     0.071886   
C91      C      0.928620000000     0.387960000000     0.502440000000     0.0716332  
C92      C      0.913730000000     0.357120000000     0.519080000000    -0.0855196  
C93      C      0.029940000000     0.602920000000     0.430990000000     0.105011   
C94      C      0.071980000000     0.595730000000     0.404560000000     0.073899   
C95      C      0.045170000000     0.633570000000     0.413010000000    -0.0990529  
C96      C      0.073320000000     0.692430000000     0.355230000000    -0.0849416  
C97      C      0.087100000000     0.625750000000     0.385380000000    -0.0899022  
C98      C      0.090390000000     0.677940000000     0.370060000000     0.0325077  
C99      C      0.073910000000     0.645320000000     0.389460000000     0.0407429  
C100     C      0.089330000000     0.723260000000     0.338390000000     0.0720024  
C101     C      0.138670000000     0.725450000000     0.348110000000     0.0722542  
C102     C      0.123550000000     0.695100000000     0.366320000000    -0.0854903  
C103     C      0.513160000000     0.606950000000     0.943120000000     0.10404    
C104     C      0.553950000000     0.598140000000     0.915690000000     0.073618   
C105     C      0.528990000000     0.637530000000     0.924690000000    -0.0987776  
C106     C      0.559010000000     0.696200000000     0.865360000000    -0.0850491  
C107     C      0.569710000000     0.628090000000     0.896450000000    -0.089857   
C108     C      0.575070000000     0.681110000000     0.881840000000     0.0325717  
C109     C      0.557540000000     0.648460000000     0.900940000000     0.0406066  
C110     C      0.576080000000     0.726970000000     0.848330000000     0.0715602  
C111     C      0.624530000000     0.727990000000     0.861880000000     0.0722403  
C112     C      0.608300000000     0.697600000000     0.879920000000    -0.0853256  
C113     C      0.309810000000     0.062110000000     0.193790000000     0.104117   
C114     C      0.261030000000     0.054080000000     0.163660000000     0.0725113  
C115     C      0.294290000000     0.031200000000     0.210700000000    -0.0992588  
C116     C      0.260090000000     0.960660000000     0.224760000000    -0.0856404  
C117     C      0.245230000000     0.023180000000     0.179820000000    -0.089695   
C118     C      0.245030000000     0.978680000000     0.222790000000     0.0330393  
C119     C      0.261720000000     0.011360000000     0.204040000000     0.0400718  
C120     C      0.244130000000     0.930110000000     0.242420000000     0.0721877  
C121     C      0.198440000000     0.934360000000     0.255930000000     0.0719368  
C122     C      0.213870000000     0.965170000000     0.239090000000    -0.0856764  
C123     C      0.460310000000     0.399240000000     0.042500000000     0.105348   
C124     C      0.411940000000     0.390090000000     0.009270000000     0.0735037  
C125     C      0.445610000000     0.367810000000     0.056770000000    -0.0997943  
C126     C      0.416170000000     0.297710000000     0.063850000000    -0.0856357  
C127     C      0.396920000000     0.358470000000     0.022560000000    -0.0893002  
C128     C      0.398500000000     0.313160000000     0.061120000000     0.0327077  
C129     C      0.413790000000     0.346820000000     0.046410000000     0.040903   
C130     C      0.402050000000     0.266670000000     0.079270000000     0.0725888  
C131     C      0.352790000000     0.264870000000     0.087600000000     0.0721455  
C132     C      0.366360000000     0.296210000000     0.073270000000    -0.0850562  
C133     C      0.635650000000     0.810910000000     0.457540000000     0.110842   
C134     C      0.690300000000     0.827250000000     0.467110000000     0.0766338  
C135     C      0.631410000000     0.808660000000     0.504650000000    -0.101496   
C136     C      0.631610000000     0.820350000000     0.605550000000    -0.0852632  
C137     C      0.686890000000     0.825970000000     0.514080000000    -0.0908539  
C138     C      0.653100000000     0.813480000000     0.583830000000     0.0323859  
C139     C      0.657020000000     0.815710000000     0.533570000000     0.0418055  
C140     C      0.629910000000     0.820060000000     0.652870000000     0.0719913  
C141     C      0.669820000000     0.805960000000     0.657970000000     0.0725026  
C142     C      0.671580000000     0.805270000000     0.610830000000    -0.0859844  
C143     C      0.637290000000     0.825270000000     0.153110000000     0.10531    
C144     C      0.692080000000     0.863680000000     0.157460000000     0.0731526  
C145     C      0.637990000000     0.829720000000     0.106150000000    -0.100102   
C146     C      0.642600000000     0.853550000000     0.009990000000    -0.0862725  
C147     C      0.693270000000     0.868480000000     0.110730000000    -0.0907174  
C148     C      0.667390000000     0.853710000000     0.034290000000     0.0329212  
C149     C      0.666160000000     0.851030000000     0.084430000000     0.0411839  
C150     C      0.642360000000     0.852230000000     0.962690000000     0.0725908  
C151     C      0.691340000000     0.852790000000     0.962910000000     0.0726984  
C152     C      0.692370000000     0.854200000000     0.010160000000    -0.0860308  
C153     C      0.699020000000     0.747500000000     0.275210000000     0.103997   
C154     C      0.745150000000     0.797850000000     0.266960000000     0.0721424  
C155     C      0.715600000000     0.733190000000     0.257800000000    -0.0993955  
C156     C      0.761680000000     0.708940000000     0.239280000000    -0.0820736  
C157     C      0.761990000000     0.784110000000     0.249440000000    -0.0905236  
C158     C      0.764020000000     0.736740000000     0.221930000000     0.0317762  
C159     C      0.747110000000     0.751500000000     0.243800000000     0.0409776  
C160     C      0.776630000000     0.694690000000     0.216810000000     0.0679189  
C161     C      0.797310000000     0.735680000000     0.161660000000     0.0745891  
C162     C      0.782680000000     0.750430000000     0.183220000000    -0.0850388  
C163     C      0.631110000000     0.899170000000     0.335630000000     0.107057   
C164     C      0.606940000000     0.855950000000     0.387460000000     0.06878    
C165     C      0.616140000000     0.913630000000     0.357190000000    -0.0992802  
C166     C      0.595390000000     0.947010000000     0.422830000000    -0.0860351  
C167     C      0.591770000000     0.870100000000     0.409640000000    -0.0859039  
C168     C      0.579550000000     0.914320000000     0.416060000000     0.0329642  
C169     C      0.596060000000     0.899100000000     0.394270000000     0.0397617  
C170     C      0.578900000000     0.961550000000     0.438920000000     0.0721134  
C171     C      0.531570000000     0.912100000000     0.443700000000     0.0712753  
C172     C      0.547410000000     0.896760000000     0.427700000000    -0.0855473  
C173     C      0.032670000000     0.525270000000     0.620550000000     0.104454   
C174     C      0.978210000000     0.510010000000     0.614330000000     0.0723456  
C175     C      0.030740000000     0.526760000000     0.667880000000    -0.0994795  
C176     C      0.972740000000     0.492420000000     0.760060000000    -0.085829   
C177     C      0.975790000000     0.511400000000     0.661330000000    -0.0900581  
C178     C      0.999090000000     0.517530000000     0.739130000000     0.0324154  
C179     C      0.002000000000     0.519060000000     0.688820000000     0.0403765  
C180     C      0.971620000000     0.489430000000     0.807220000000     0.0717346  
C181     C      0.021310000000     0.536360000000     0.813890000000     0.071232   
C182     C      0.023260000000     0.540000000000     0.766740000000    -0.0860026  
C183     C      0.976380000000     0.449600000000     0.115810000000     0.103956   
C184     C      0.026600000000     0.496530000000     0.118460000000     0.0718781  
C185     C      0.976120000000     0.447920000000     0.163340000000    -0.100074   
C186     C      0.025900000000     0.475870000000     0.265240000000    -0.0862452  
C187     C      0.027030000000     0.494930000000     0.165690000000    -0.0898965  
C188     C      0.999820000000     0.470840000000     0.239010000000     0.03242    
C189     C      0.001220000000     0.470950000000     0.188700000000     0.0404033  
C190     C      0.024800000000     0.477880000000     0.312450000000     0.0712728  
C191     C      0.972630000000     0.469810000000     0.308320000000     0.0717468  
C192     C      0.972750000000     0.467160000000     0.261150000000    -0.0858905  
C193     C      0.864360000000     0.584090000000     0.100680000000     0.104401   
C194     C      0.905560000000     0.633050000000     0.072670000000     0.0727653  
C195     C      0.879700000000     0.568760000000     0.082450000000    -0.0994315  
C196     C      0.906890000000     0.538760000000     0.020890000000    -0.0855329  
C197     C      0.921020000000     0.618240000000     0.053900000000    -0.0896745  
C198     C      0.924330000000     0.569430000000     0.038410000000     0.0323397  
C199     C      0.908080000000     0.585650000000     0.058280000000     0.0404652  
C200     C      0.922530000000     0.523630000000     0.003530000000     0.0714037  
C201     C      0.972360000000     0.568740000000     0.018760000000     0.0718986  
C202     C      0.957510000000     0.584380000000     0.036940000000    -0.0855072  
C203     C      0.364300000000     0.161950000000     0.786190000000     0.104588   
C204     C      0.309710000000     0.123440000000     0.780040000000     0.0725594  
C205     C      0.362200000000     0.158980000000     0.833550000000    -0.0995487  
C206     C      0.354830000000     0.138870000000     0.932180000000    -0.0860446  
C207     C      0.307130000000     0.120070000000     0.827090000000    -0.0901211  
C208     C      0.330520000000     0.137200000000     0.904840000000     0.0324887  
C209     C      0.333350000000     0.138450000000     0.854530000000     0.0407523  
C210     C      0.353200000000     0.140830000000     0.979260000000     0.071859   
C211     C      0.303330000000     0.138060000000     0.973240000000     0.0716743  
C212     C      0.304200000000     0.136060000000     0.926030000000    -0.0854358  
C213     C      0.363920000000     0.193560000000     0.284760000000     0.105131   
C214     C      0.308940000000     0.176450000000     0.280340000000     0.0725021  
C215     C      0.362500000000     0.194540000000     0.332160000000    -0.0996926  
C216     C      0.356220000000     0.206400000000     0.431520000000    -0.0859608  
C217     C      0.307040000000     0.177420000000     0.327490000000    -0.0900555  
C218     C      0.331690000000     0.183890000000     0.404450000000     0.0324647  
C219     C      0.333800000000     0.185730000000     0.354090000000     0.0407505  
C220     C      0.355260000000     0.202530000000     0.478550000000     0.0716569  
C221     C      0.305680000000     0.155350000000     0.473020000000     0.0717917  
C222     C      0.305910000000     0.158480000000     0.425900000000    -0.0856559  
C223     C      0.361080000000     0.079410000000     0.599790000000     0.104311   
C224     C      0.403450000000     0.127750000000     0.572160000000     0.0733598  
C225     C      0.376450000000     0.063480000000     0.583830000000    -0.0987551  
C226     C      0.405460000000     0.031230000000     0.530970000000    -0.0845915  
C227     C      0.418690000000     0.112320000000     0.554950000000    -0.0897638  
C228     C      0.422260000000     0.063110000000     0.543940000000     0.0322816  
C229     C      0.405480000000     0.079750000000     0.560820000000     0.0404855  
C230     C      0.421730000000     0.015980000000     0.516570000000     0.0713217  
C231     C      0.470870000000     0.063210000000     0.525040000000     0.0719552  
C232     C      0.455470000000     0.078910000000     0.540850000000    -0.0852783  
C233     C      0.029860000000     0.416170000000     0.924690000000     0.104699   
C234     C      0.071080000000     0.466560000000     0.901290000000     0.0734408  
C235     C      0.045580000000     0.402010000000     0.903910000000    -0.0988516  
C236     C      0.073810000000     0.374550000000     0.839960000000    -0.0850749  
C237     C      0.086670000000     0.452960000000     0.879400000000    -0.0896925  
C238     C      0.090730000000     0.405350000000     0.857270000000     0.0324331  
C239     C      0.074060000000     0.420250000000     0.880260000000     0.0404817  
C240     C      0.089910000000     0.360590000000     0.820270000000     0.0720484  
C241     C      0.139090000000     0.407340000000     0.831450000000     0.0718189  
C242     C      0.123860000000     0.421700000000     0.852510000000    -0.0852634  
C243     C      0.310590000000     0.239050000000     0.687650000000     0.10394    
C244     C      0.262430000000     0.198020000000     0.656860000000     0.0725201  
C245     C      0.294910000000     0.255150000000     0.701230000000    -0.0990795  
C246     C      0.260870000000     0.292420000000     0.708280000000    -0.0852534  
C247     C      0.246470000000     0.213810000000     0.669720000000    -0.0896547  
C248     C      0.245670000000     0.259370000000     0.707930000000     0.0324916  
C249     C      0.262580000000     0.242680000000     0.692460000000     0.0405251  
C250     C      0.244770000000     0.307620000000     0.723540000000     0.0718848  
C251     C      0.198670000000     0.258350000000     0.737430000000     0.0718237  
C252     C      0.214190000000     0.242420000000     0.723020000000    -0.0855587  
C253     C      0.476530000000     0.456120000000     0.630520000000     0.104051   
C254     C      0.467120000000     0.499330000000     0.633650000000     0.0727967  
C255     C      0.473580000000     0.453150000000     0.677820000000    -0.100574   
C256     C      0.444370000000     0.475060000000     0.778300000000    -0.0866421  
C257     C      0.463750000000     0.496500000000     0.680590000000    -0.0905348  
C258     C      0.467570000000     0.472730000000     0.753460000000     0.0326421  
C259     C      0.467700000000     0.473700000000     0.703260000000     0.0409338  
C260     C      0.446480000000     0.477260000000     0.825500000000     0.0721521  
C261     C      0.493520000000     0.474110000000     0.824100000000     0.0722207  
C262     C      0.491910000000     0.471480000000     0.776920000000    -0.0862703  
C263     C      0.485970000000     0.527630000000     0.328180000000     0.103874   
C264     C      0.514550000000     0.500070000000     0.321650000000     0.0745361  
C265     C      0.484920000000     0.529230000000     0.280780000000    -0.0989736  
C266     C      0.471410000000     0.514780000000     0.180600000000    -0.085588   
C267     C      0.513510000000     0.501160000000     0.274530000000    -0.0900922  
C268     C      0.498230000000     0.518020000000     0.203080000000     0.0330572  
C269     C      0.499010000000     0.516270000000     0.253430000000     0.0409189  
C270     C      0.470420000000     0.514580000000     0.133270000000     0.0727317  
C271     C      0.522160000000     0.521560000000     0.129650000000     0.0731136  
C272     C      0.524080000000     0.522190000000     0.176910000000    -0.0857693  
C273     C      0.848850000000     0.204340000000     0.979490000000     0.103611   
C274     C      0.856850000000     0.160290000000     0.975740000000     0.0718949  
C275     C      0.851590000000     0.207330000000     0.932130000000    -0.100113   
C276     C      0.833640000000     0.190750000000     0.832570000000    -0.0860611  
C277     C      0.859970000000     0.163100000000     0.928720000000    -0.0900997  
C278     C      0.857010000000     0.187730000000     0.855960000000     0.0324437  
C279     C      0.856730000000     0.186420000000     0.906290000000     0.0405068  
C280     C      0.832050000000     0.188530000000     0.785320000000     0.072069   
C281     C      0.877310000000     0.182350000000     0.783560000000     0.071668   
C282     C      0.879390000000     0.184120000000     0.830850000000    -0.0864012  
C283     C      0.841380000000     0.130450000000     0.476260000000     0.104603   
C284     C      0.799230000000     0.141570000000     0.481320000000     0.0725492  
C285     C      0.838350000000     0.128760000000     0.428860000000    -0.099573   
C286     C      0.819080000000     0.115440000000     0.329130000000    -0.0858266  
C287     C      0.795780000000     0.139910000000     0.434320000000    -0.0903173  
C288     C      0.815270000000     0.136440000000     0.357120000000     0.0325539  
C289     C      0.816070000000     0.134420000000     0.407380000000     0.0407434  
C290     C      0.820680000000     0.119480000000     0.282030000000     0.0717083  
C291     C      0.814120000000     0.164100000000     0.289680000000     0.0723643  
C292     C      0.812270000000     0.160660000000     0.336720000000    -0.0859271  
C293     C      0.157630000000     0.365030000000     0.426970000000     0.103602   
C294     C      0.150900000000     0.313520000000     0.431130000000     0.0718975  
C295     C      0.154280000000     0.365110000000     0.474240000000    -0.100187   
C296     C      0.172140000000     0.366790000000     0.573830000000    -0.086025   
C297     C      0.147220000000     0.313050000000     0.478040000000    -0.0903352  
C298     C      0.149100000000     0.340300000000     0.550530000000     0.0323978  
C299     C      0.149530000000     0.339250000000     0.500230000000     0.040553   
C300     C      0.173840000000     0.366220000000     0.621050000000     0.0721271  
C301     C      0.129270000000     0.314580000000     0.623000000000     0.0715598  
C302     C      0.127110000000     0.314220000000     0.575700000000    -0.0863042  
C303     C      0.186810000000     0.307640000000     0.122830000000     0.103761   
C304     C      0.194990000000     0.359700000000     0.118230000000     0.0723036  
C305     C      0.187770000000     0.306410000000     0.075350000000    -0.100251   
C306     C      0.212770000000     0.354970000000     0.972370000000    -0.0866763  
C307     C      0.196430000000     0.359070000000     0.071080000000    -0.0904109  
C308     C      0.190560000000     0.330010000000     0.998930000000     0.0325937  
C309     C      0.192090000000     0.331990000000     0.049110000000     0.0407892  
C310     C      0.209270000000     0.353950000000     0.925310000000     0.0721019  
C311     C      0.162730000000     0.303800000000     0.930130000000     0.0721765  
C312     C      0.165750000000     0.303890000000     0.977260000000    -0.0860183  
C313     C      0.063160000000     0.259760000000     0.254710000000     0.105014   
C314     C      0.071240000000     0.307570000000     0.221790000000     0.0731236  
C315     C      0.032000000000     0.244090000000     0.238280000000    -0.10003    
C316     C      0.974260000000     0.212410000000     0.178210000000    -0.0861724  
C317     C      0.040360000000     0.292410000000     0.204970000000    -0.090018   
C318     C      0.987550000000     0.243390000000     0.194290000000     0.0328314  
C319     C      0.020420000000     0.260190000000     0.212570000000     0.0408163  
C320     C      0.942970000000     0.196410000000     0.162940000000     0.0723302  
C321     C      0.937840000000     0.241300000000     0.177330000000     0.0722049  
C322     C      0.969000000000     0.257910000000     0.193210000000    -0.0857906  
C323     C      0.403640000000     0.476950000000     0.395820000000     0.101204   
C324     C      0.390730000000     0.426690000000     0.425720000000     0.0755476  
C325     C      0.377320000000     0.462360000000     0.366790000000    -0.0976492  
C326     C      0.309340000000     0.430580000000     0.335120000000    -0.0854175  
C327     C      0.363740000000     0.411950000000     0.398720000000    -0.0892631  
C328     C      0.325860000000     0.414400000000     0.343320000000     0.0329463  
C329     C      0.356410000000     0.429700000000     0.368980000000     0.0403119  
C330     C      0.279040000000     0.414810000000     0.316110000000     0.0722599  
C331     C      0.280930000000     0.367450000000     0.312150000000     0.0726606  
C332     C      0.311610000000     0.382700000000     0.329910000000    -0.0856013  
C333     C      0.517940000000     0.963540000000     0.828800000000     0.104194   
C334     C      0.521570000000     0.013780000000     0.825620000000     0.071933   
C335     C      0.519640000000     0.963210000000     0.781350000000    -0.100595   
C336     C      0.542160000000     0.012390000000     0.679300000000    -0.0867202  
C337     C      0.523850000000     0.014120000000     0.778450000000    -0.0906955  
C338     C      0.520770000000     0.986710000000     0.705570000000     0.0328105  
C339     C      0.521960000000     0.988250000000     0.755780000000     0.0411356  
C340     C      0.539160000000     0.011160000000     0.632100000000     0.0715225  
C341     C      0.494480000000     0.959660000000     0.636410000000     0.0722269  
C342     C      0.497120000000     0.959910000000     0.683580000000    -0.0861898  
C343     C      0.464420000000     0.956660000000     0.136450000000     0.10562    
C344     C      0.483120000000     0.011630000000     0.131050000000     0.0721043  
C345     C      0.464150000000     0.958570000000     0.183810000000    -0.100004   
C346     C      0.453850000000     0.966010000000     0.283160000000    -0.0859864  
C347     C      0.482930000000     0.014060000000     0.178260000000    -0.0903362  
C348     C      0.476650000000     0.989920000000     0.255640000000     0.0327385  
C349     C      0.474200000000     0.987510000000     0.205300000000     0.0409971  
C350     C      0.458220000000     0.966980000000     0.330070000000     0.0719257  
C351     C      0.506490000000     0.015450000000     0.323670000000     0.0713893  
C352     C      0.502890000000     0.015170000000     0.276590000000    -0.0858311  
C353     C      0.722110000000     0.122340000000     0.112230000000     0.105542   
C354     C      0.732810000000     0.083930000000     0.080720000000     0.0733192  
C355     C      0.690940000000     0.105390000000     0.096100000000    -0.100278   
C356     C      0.633960000000     0.077510000000     0.035070000000    -0.086207   
C357     C      0.701900000000     0.066750000000     0.064150000000    -0.0899515  
C358     C      0.648020000000     0.060650000000     0.051930000000     0.0325988  
C359     C      0.680680000000     0.077710000000     0.070990000000     0.0410723  
C360     C      0.602970000000     0.061500000000     0.018750000000     0.0724461  
C361     C      0.599560000000     0.012290000000     0.033520000000     0.071454   
C362     C      0.630510000000     0.027610000000     0.050560000000    -0.0852294  
C363     C      0.184040000000     0.872490000000     0.644330000000     0.103465   
C364     C      0.192370000000     0.828660000000     0.640450000000     0.0722244  
C365     C      0.185890000000     0.874980000000     0.596830000000    -0.0997509  
C366     C      0.165170000000     0.856310000000     0.498310000000    -0.0855861  
C367     C      0.194690000000     0.831020000000     0.593310000000    -0.0898069  
C368     C      0.189510000000     0.854280000000     0.520500000000     0.0323149  
C369     C      0.190640000000     0.853840000000     0.570860000000     0.0405281  
C370     C      0.162370000000     0.853390000000     0.451150000000     0.0717533  
C371     C      0.208200000000     0.848270000000     0.447040000000     0.0715169  
C372     C      0.211470000000     0.850710000000     0.494230000000    -0.0858542  
C373     C      0.149460000000     0.783400000000     0.947590000000     0.103363   
C374     C      0.142160000000     0.827850000000     0.951730000000     0.0718801  
C375     C      0.147920000000     0.781040000000     0.995110000000    -0.0999719  
C376     C      0.168990000000     0.799410000000     0.093750000000    -0.085659   
C377     C      0.140160000000     0.825640000000     0.998870000000    -0.090259   
C378     C      0.145000000000     0.802070000000     0.071560000000     0.0322496  
C379     C      0.143830000000     0.802550000000     0.021210000000     0.0405134  
C380     C      0.171860000000     0.802350000000     0.140930000000     0.0716757  
C381     C      0.126770000000     0.808730000000     0.144970000000     0.071484   
C382     C      0.123430000000     0.806240000000     0.097820000000    -0.0860499  
C383     C      0.276340000000     0.859690000000     0.828270000000     0.105476   
C384     C      0.266430000000     0.898670000000     0.859580000000     0.0735813  
C385     C      0.306150000000     0.874060000000     0.849300000000    -0.0997863  
C386     C      0.360200000000     0.897740000000     0.916540000000    -0.0856541  
C387     C      0.295850000000     0.913190000000     0.881090000000    -0.0898846  
C388     C      0.347560000000     0.915900000000     0.899490000000     0.0326317  
C389     C      0.316050000000     0.900760000000     0.876610000000     0.0409532  
C390     C      0.390320000000     0.912450000000     0.936270000000     0.0718453  
C391     C      0.395350000000     0.962650000000     0.924480000000     0.0723242  
C392     C      0.365510000000     0.948750000000     0.904110000000    -0.0856322  
C393     C      0.803960000000     0.634680000000     0.785270000000     0.104686   
C394     C      0.817590000000     0.688560000000     0.782630000000     0.0730388  
C395     C      0.802370000000     0.635220000000     0.832710000000    -0.100021   
C396     C      0.836280000000     0.690360000000     0.927090000000    -0.086461   
C397     C      0.816120000000     0.689580000000     0.829710000000    -0.090867   
C398     C      0.810920000000     0.664640000000     0.905580000000     0.0326479  
C399     C      0.809240000000     0.662980000000     0.855370000000     0.0409174  
C400     C      0.839270000000     0.690570000000     0.974120000000     0.0723674  
C401     C      0.791940000000     0.641100000000     0.979450000000     0.0720263  
C402     C      0.788330000000     0.640040000000     0.932360000000    -0.0863267  
C403     C      0.817220000000     0.659990000000     0.284200000000     0.110694   
C404     C      0.872000000000     0.674950000000     0.281860000000     0.0769336  
C405     C      0.819010000000     0.663600000000     0.331420000000    -0.1025     
C406     C      0.844150000000     0.696800000000     0.426140000000    -0.0867685  
C407     C      0.874130000000     0.677980000000     0.328910000000    -0.0920535  
C408     C      0.849060000000     0.674450000000     0.403830000000     0.0323797  
C409     C      0.847430000000     0.672080000000     0.354000000000     0.0421354  
C410     C      0.844200000000     0.697600000000     0.473490000000     0.0721732  
C411     C      0.853680000000     0.654550000000     0.476680000000     0.0721784  
C412     C      0.854580000000     0.653650000000     0.429400000000    -0.0866572  
C413     C      0.721570000000     0.637260000000     0.606190000000     0.105351   
C414     C      0.730350000000     0.597870000000     0.573620000000     0.0741475  
C415     C      0.690320000000     0.621440000000     0.590050000000    -0.0997353  
C416     C      0.630450000000     0.593740000000     0.534650000000    -0.085768   
C417     C      0.699650000000     0.582170000000     0.556290000000    -0.0902453  
C418     C      0.645970000000     0.577090000000     0.546340000000     0.0326412  
C419     C      0.679070000000     0.593830000000     0.564240000000     0.0407862  
C420     C      0.599150000000     0.577580000000     0.519350000000     0.0725712  
C421     C      0.598450000000     0.528920000000     0.524280000000     0.0723362  
C422     C      0.629410000000     0.544210000000     0.540900000000    -0.0859724  
C423     C      0.942610000000     0.745210000000     0.659590000000     0.104465   
C424     C      0.933010000000     0.695040000000     0.684630000000     0.0731099  
C425     C      0.973250000000     0.759260000000     0.678010000000    -0.0996166  
C426     C      0.029910000000     0.786090000000     0.740650000000    -0.0859088  
C427     C      0.963210000000     0.708550000000     0.703590000000    -0.090078   
C428     C      0.016070000000     0.755940000000     0.721280000000     0.0323552  
C429     C      0.983750000000     0.741080000000     0.700850000000     0.0407011  
C430     C      0.060550000000     0.800040000000     0.758460000000     0.0715094  
C431     C      0.063900000000     0.754650000000     0.740250000000     0.071913   
C432     C      0.033490000000     0.740180000000     0.721550000000    -0.0855622  
H1       H      0.744800000000     0.069970000000     0.667510000000     0.0266786  
H2       H      0.742560000000     0.914080000000     0.744380000000     0.0260766  
H3       H      0.803950000000     0.018340000000     0.719710000000     0.0503524  
H4       H      0.771170000000     0.965260000000     0.710020000000     0.0518885  
H5       H      0.715640000000     0.017450000000     0.699030000000     0.0510037  
H6       H      0.703890000000     0.988950000000     0.765490000000     0.056816   
H7       H      0.831960000000     0.069870000000     0.685290000000     0.0264746  
H8       H      0.635590000000     0.922020000000     0.787410000000     0.0411578  
H9       H      0.004780000000     0.407330000000     0.516570000000     0.02655    
H10      H      0.850820000000     0.260060000000     0.612680000000     0.0260801  
H11      H      0.888090000000     0.343420000000     0.518490000000     0.050488   
H12      H      0.876530000000     0.313220000000     0.584540000000     0.0516006  
H13      H      0.980100000000     0.354500000000     0.547200000000     0.0508838  
H14      H      0.951550000000     0.301060000000     0.529580000000     0.0563931  
H15      H      0.913610000000     0.396910000000     0.490240000000     0.0262008  
H16      H      0.953840000000     0.242510000000     0.586160000000     0.0395602  
H17      H      0.075210000000     0.733610000000     0.327720000000     0.0264817  
H18      H      0.083170000000     0.581550000000     0.399690000000     0.0255513  
H19      H      0.138100000000     0.685580000000     0.378190000000     0.0504002  
H20      H      0.108830000000     0.633140000000     0.366750000000     0.0514845  
H21      H      0.047680000000     0.680100000000     0.356200000000     0.0507088  
H22      H      0.034830000000     0.648400000000     0.418580000000     0.0563626  
H23      H      0.164340000000     0.737750000000     0.346280000000     0.0263788  
H24      H      0.969320000000     0.577570000000     0.435440000000     0.0408134  
H25      H      0.562720000000     0.737800000000     0.836280000000     0.0262705  
H26      H      0.564540000000     0.583460000000     0.910460000000     0.0268986  
H27      H      0.622010000000     0.687480000000     0.893060000000     0.0513697  
H28      H      0.591240000000     0.634920000000     0.877540000000     0.0522799  
H29      H      0.533370000000     0.684350000000     0.865200000000     0.0503623  
H30      H      0.519350000000     0.652990000000     0.930070000000     0.056087   
H31      H      0.650200000000     0.739740000000     0.861510000000     0.0271044  
H32      H      0.452740000000     0.583120000000     0.947660000000     0.0399489  
H33      H      0.256670000000     0.917020000000     0.242850000000     0.0270225  
H34      H      0.246970000000     0.061850000000     0.144970000000     0.0262435  
H35      H      0.201420000000     0.978320000000     0.239290000000     0.0508521  
H36      H      0.220140000000     0.008590000000     0.172890000000     0.0515679  
H37      H      0.283940000000     0.969780000000     0.212000000000     0.0513638  
H38      H      0.307620000000     0.023070000000     0.230390000000     0.0564683  
H39      H      0.174310000000     0.924840000000     0.267890000000     0.0264028  
H40      H      0.368470000000     0.082540000000     0.174960000000     0.0395582  
H41      H      0.416750000000     0.255830000000     0.080830000000     0.0265225  
H42      H      0.397990000000     0.397860000000     0.990260000000     0.0255185  
H43      H      0.351740000000     0.307120000000     0.072540000000     0.0510197  
H44      H      0.372340000000     0.343210000000     0.013320000000     0.0522331  
H45      H      0.440830000000     0.309320000000     0.053760000000     0.0507182  
H46      H      0.458980000000     0.360100000000     0.077200000000     0.0563764  
H47      H      0.327900000000     0.252710000000     0.096750000000     0.0266399  
H48      H      0.520540000000     0.424290000000     0.031300000000     0.0399558  
H49      H      0.613620000000     0.826380000000     0.668230000000     0.0264522  
H50      H      0.713590000000     0.834470000000     0.453220000000     0.0218914  
H51      H      0.687700000000     0.798650000000     0.595800000000     0.0504877  
H52      H      0.707720000000     0.833140000000     0.534880000000     0.0523029  
H53      H      0.616960000000     0.827100000000     0.586440000000     0.0506334  
H54      H      0.608200000000     0.801660000000     0.518390000000     0.0565157  
H55      H      0.685180000000     0.800250000000     0.677440000000     0.0260464  
H56      H      0.587230000000     0.779910000000     0.401410000000     0.0482556  
H57      H      0.622330000000     0.851330000000     0.945220000000     0.0267458  
H58      H      0.714040000000     0.877370000000     0.176030000000     0.0265538  
H59      H      0.711950000000     0.854240000000     0.027660000000     0.0517238  
H60      H      0.715460000000     0.885600000000     0.095240000000     0.0522356  
H61      H      0.623150000000     0.853800000000     0.027410000000     0.0511543  
H62      H      0.616540000000     0.816080000000     0.086480000000     0.0574892  
H63      H      0.710700000000     0.852220000000     0.945640000000     0.0268647  
H64      H      0.585250000000     0.816930000000     0.187950000000     0.0384877  
H65      H      0.778250000000     0.675620000000     0.234550000000     0.0365153  
H66      H      0.757880000000     0.823360000000     0.269500000000     0.0269159  
H67      H      0.785330000000     0.772000000000     0.168940000000     0.051672   
H68      H      0.786590000000     0.799130000000     0.239970000000     0.0523193  
H69      H      0.749150000000     0.698770000000     0.270680000000     0.0508027  
H70      H      0.703670000000     0.707740000000     0.254410000000     0.0576875  
H71      H      0.811020000000     0.746370000000     0.131190000000     0.021605   
H72      H      0.661090000000     0.714610000000     0.339340000000     0.0381175  
H73      H      0.592090000000     0.986970000000     0.442820000000     0.027122   
H74      H      0.605760000000     0.834860000000     0.403440000000     0.0362857  
H75      H      0.534230000000     0.871440000000     0.422880000000     0.0513321  
H76      H      0.577410000000     0.858770000000     0.439290000000     0.0516368  
H77      H      0.620390000000     0.961440000000     0.415150000000     0.0520183  
H78      H      0.619570000000     0.935840000000     0.344200000000     0.0575949  
H79      H      0.506520000000     0.897710000000     0.451210000000     0.0265151  
H80      H      0.685130000000     0.937580000000     0.300170000000     0.0437253  
H81      H      0.951150000000     0.469140000000     0.821780000000     0.0266221  
H82      H      0.956770000000     0.503050000000     0.594970000000     0.0271241  
H83      H      0.043790000000     0.560100000000     0.752020000000     0.0509682  
H84      H      0.953250000000     0.505990000000     0.676050000000     0.0519418  
H85      H      0.953590000000     0.474390000000     0.740090000000     0.0512779  
H86      H      0.051590000000     0.533220000000     0.688370000000     0.0564952  
H87      H      0.040860000000     0.553930000000     0.833880000000     0.0262047  
H88      H      0.075700000000     0.512640000000     0.595520000000     0.0403262  
H89      H      0.045690000000     0.482270000000     0.331410000000     0.026289   
H90      H      0.046940000000     0.516290000000     0.102680000000     0.0274545  
H91      H      0.952130000000     0.463350000000     0.242010000000     0.0517077  
H92      H      0.047030000000     0.513190000000     0.184160000000     0.0526472  
H93      H      0.047140000000     0.478510000000     0.249340000000     0.0512252  
H94      H      0.956270000000     0.428560000000     0.180610000000     0.0566484  
H95      H      0.951460000000     0.467580000000     0.323950000000     0.0265369  
H96      H      0.920030000000     0.424790000000     0.082970000000     0.0392078  
H97      H      0.908060000000     0.499840000000     0.990720000000     0.025869   
H98      H      0.916460000000     0.658270000000     0.067250000000     0.0267623  
H99      H      0.972120000000     0.607850000000     0.050610000000     0.0510514  
H100     H      0.942740000000     0.632400000000     0.035150000000     0.0520547  
H101     H      0.881230000000     0.526420000000     0.020290000000     0.0503465  
H102     H      0.869720000000     0.543690000000     0.088160000000     0.0559843  
H103     H      0.998060000000     0.581180000000     0.018840000000     0.0268212  
H104     H      0.803950000000     0.548080000000     0.106800000000     0.039932   
H105     H      0.372900000000     0.142770000000     0.998980000000     0.0264735  
H106     H      0.288280000000     0.109080000000     0.760670000000     0.0274408  
H107     H      0.284910000000     0.134910000000     0.906230000000     0.0515097  
H108     H      0.284500000000     0.103330000000     0.841850000000     0.0521126  
H109     H      0.375280000000     0.139100000000     0.917310000000     0.0506705  
H110     H      0.383060000000     0.173280000000     0.854000000000     0.0569156  
H111     H      0.282940000000     0.138010000000     0.988100000000     0.0266104  
H112     H      0.417320000000     0.169540000000     0.756600000000     0.038002   
H113     H      0.375050000000     0.220220000000     0.498060000000     0.0265203  
H114     H      0.287140000000     0.168890000000     0.261610000000     0.0270214  
H115     H      0.286520000000     0.140370000000     0.406360000000     0.0514204  
H116     H      0.284490000000     0.171180000000     0.343000000000     0.0520327  
H117     H      0.376310000000     0.226770000000     0.416470000000     0.051072   
H118     H      0.383780000000     0.201540000000     0.351900000000     0.0566202  
H119     H      0.285620000000     0.134890000000     0.488030000000     0.0266448  
H120     H      0.408170000000     0.183420000000     0.257310000000     0.0408434  
H121     H      0.407780000000     0.991300000000     0.507260000000     0.0269346  
H122     H      0.414740000000     0.152950000000     0.566100000000     0.0256484  
H123     H      0.469850000000     0.103220000000     0.551400000000     0.0501637  
H124     H      0.440610000000     0.126100000000     0.536520000000     0.0514068  
H125     H      0.379820000000     0.017990000000     0.531510000000     0.0507943  
H126     H      0.365980000000     0.038500000000     0.590670000000     0.0564671  
H127     H      0.496550000000     0.076470000000     0.523600000000     0.0262674  
H128     H      0.300400000000     0.044750000000     0.603050000000     0.0411061  
H129     H      0.075850000000     0.336590000000     0.808020000000     0.0264446  
H130     H      0.081760000000     0.491970000000     0.898620000000     0.0256907  
H131     H      0.138320000000     0.445260000000     0.865900000000     0.050177   
H132     H      0.108240000000     0.468280000000     0.861080000000     0.0512899  
H133     H      0.048190000000     0.361100000000     0.841360000000     0.0507941  
H134     H      0.035760000000     0.376790000000     0.907250000000     0.0563069  
H135     H      0.164740000000     0.420820000000     0.829180000000     0.0262003  
H136     H      0.969410000000     0.379950000000     0.929290000000     0.040942   
H137     H      0.257440000000     0.333190000000     0.723030000000     0.0269192  
H138     H      0.248710000000     0.175830000000     0.639070000000     0.0261979  
H139     H      0.201570000000     0.216900000000     0.724370000000     0.0506161  
H140     H      0.221580000000     0.203400000000     0.661360000000     0.0516329  
H141     H      0.284990000000     0.306630000000     0.696290000000     0.0512677  
H142     H      0.307880000000     0.276990000000     0.720030000000     0.0567186  
H143     H      0.174340000000     0.244190000000     0.748760000000     0.026466   
H144     H      0.369850000000     0.276080000000     0.671470000000     0.0400713  
H145     H      0.428350000000     0.479660000000     0.843380000000     0.0264419  
H146     H      0.464380000000     0.517900000000     0.618090000000     0.0274245  
H147     H      0.510380000000     0.469810000000     0.758830000000     0.0516455  
H148     H      0.459230000000     0.512940000000     0.699170000000     0.0530466  
H149     H      0.424950000000     0.475670000000     0.761310000000     0.0513656  
H150     H      0.476220000000     0.434960000000     0.694890000000     0.0566906  
H151     H      0.513270000000     0.473960000000     0.840860000000     0.0264217  
H152     H      0.516770000000     0.441000000000     0.600730000000     0.038409   
H153     H      0.448860000000     0.511200000000     0.117370000000     0.0272186  
H154     H      0.526520000000     0.488490000000     0.336330000000     0.0254162  
H155     H      0.545660000000     0.525650000000     0.192760000000     0.0513367  
H156     H      0.523880000000     0.489940000000     0.254790000000     0.0527094  
H157     H      0.450770000000     0.511300000000     0.199290000000     0.0513221  
H158     H      0.473510000000     0.541090000000     0.265370000000     0.0560746  
H159     H      0.542440000000     0.524140000000     0.110790000000     0.0269507  
H160     H      0.488670000000     0.572020000000     0.380750000000     0.0438939  
H161     H      0.812980000000     0.190040000000     0.768710000000     0.0264903  
H162     H      0.859040000000     0.141300000000     0.990990000000     0.0273325  
H163     H      0.898120000000     0.182190000000     0.847680000000     0.0510464  
H164     H      0.863830000000     0.146300000000     0.909920000000     0.0527274  
H165     H      0.815820000000     0.193480000000     0.850740000000     0.0519051  
H166     H      0.849580000000     0.225980000000     0.915360000000     0.056304   
H167     H      0.894710000000     0.178840000000     0.765520000000     0.0262758  
H168     H      0.871210000000     0.258100000000     0.019060000000     0.0389198  
H169     H      0.824130000000     0.103010000000     0.261640000000     0.0265092  
H170     H      0.783330000000     0.146840000000     0.500190000000     0.0273089  
H171     H      0.809600000000     0.177630000000     0.357020000000     0.0516615  
H172     H      0.777610000000     0.143580000000     0.419130000000     0.0522128  
H173     H      0.821050000000     0.096120000000     0.343490000000     0.0511428  
H174     H      0.854080000000     0.123950000000     0.408750000000     0.0566894  
H175     H      0.812310000000     0.183600000000     0.275560000000     0.0271185  
H176     H      0.898250000000     0.148040000000     0.502140000000     0.0407022  
H177     H      0.192650000000     0.386910000000     0.637570000000     0.0268442  
H178     H      0.149340000000     0.292590000000     0.416040000000     0.0270611  
H179     H      0.108660000000     0.293450000000     0.558910000000     0.050673   
H180     H      0.143710000000     0.292570000000     0.496960000000     0.0526489  
H181     H      0.189670000000     0.387390000000     0.555620000000     0.0521495  
H182     H      0.155690000000     0.385540000000     0.490840000000     0.0564051  
H183     H      0.112220000000     0.293640000000     0.641140000000     0.0262292  
H184     H      0.135640000000     0.396440000000     0.386040000000     0.0391502  
H185     H      0.226710000000     0.374070000000     0.906120000000     0.0265453  
H186     H      0.197900000000     0.381220000000     0.133220000000     0.0272463  
H187     H      0.148020000000     0.284150000000     0.996710000000     0.0523103  
H188     H      0.199830000000     0.379410000000     0.051890000000     0.0529261  
H189     H      0.232520000000     0.375390000000     0.987920000000     0.0512041  
H190     H      0.184970000000     0.285380000000     0.058810000000     0.0567856  
H191     H      0.142670000000     0.283520000000     0.914780000000     0.0265893  
H192     H      0.210190000000     0.276560000000     0.161060000000     0.0385605  
H193     H      0.933590000000     0.172350000000     0.151320000000     0.0264647  
H194     H      0.085860000000     0.332420000000     0.213810000000     0.0269426  
H195     H      0.978140000000     0.281730000000     0.205630000000     0.0513426  
H196     H      0.032500000000     0.305860000000     0.185120000000     0.0525786  
H197     H      0.987920000000     0.200470000000     0.177360000000     0.051561   
H198     H      0.016600000000     0.219410000000     0.246480000000     0.0565365  
H199     H      0.924190000000     0.253280000000     0.177790000000     0.0267769  
H200     H      0.066550000000     0.240450000000     0.334520000000     0.0374313  
H201     H      0.266850000000     0.428080000000     0.311700000000     0.0267804  
H202     H      0.395320000000     0.411920000000     0.448340000000     0.024814   
H203     H      0.323710000000     0.369360000000     0.333940000000     0.0512207  
H204     H      0.348290000000     0.386760000000     0.402430000000     0.0526703  
H205     H      0.318920000000     0.454930000000     0.345190000000     0.050296   
H206     H      0.372740000000     0.476780000000     0.343570000000     0.053612   
H207     H      0.270470000000     0.342680000000     0.303600000000     0.0263367  
H208     H      0.405610000000     0.531290000000     0.392380000000     0.0311328  
H209     H      0.555960000000     0.031730000000     0.613040000000     0.026468   
H210     H      0.522230000000     0.034170000000     0.841180000000     0.0272419  
H211     H      0.480030000000     0.939630000000     0.702800000000     0.0518638  
H212     H      0.525790000000     0.034070000000     0.759760000000     0.0529144  
H213     H      0.560960000000     0.033410000000     0.695150000000     0.051303   
H214     H      0.519050000000     0.943290000000     0.764280000000     0.0566224  
H215     H      0.475350000000     0.938710000000     0.620830000000     0.0266154  
H216     H      0.485470000000     0.907530000000     0.861460000000     0.0390201  
H217     H      0.440230000000     0.947660000000     0.349880000000     0.0267074  
H218     H      0.491190000000     0.033200000000     0.111820000000     0.026345   
H219     H      0.521230000000     0.034070000000     0.256670000000     0.0513097  
H220     H      0.490130000000     0.036810000000     0.193450000000     0.0518444  
H221     H      0.432860000000     0.946360000000     0.268550000000     0.0510798  
H222     H      0.456680000000     0.937430000000     0.203840000000     0.0567715  
H223     H      0.527530000000     0.035060000000     0.338310000000     0.0267108  
H224     H      0.471440000000     0.910670000000     0.108780000000     0.0409312  
H225     H      0.593070000000     0.075640000000     0.006460000000     0.0264422  
H226     H      0.748510000000     0.074780000000     0.073220000000     0.0268652  
H227     H      0.640300000000     0.013570000000     0.063490000000     0.0512582  
H228     H      0.695080000000     0.045470000000     0.044880000000     0.0526513  
H229     H      0.646800000000     0.103050000000     0.034280000000     0.0509879  
H230     H      0.674550000000     0.113640000000     0.103870000000     0.0564645  
H231     H      0.586660000000     0.986720000000     0.033670000000     0.0271407  
H232     H      0.742210000000     0.181680000000     0.120790000000     0.040536   
H233     H      0.142660000000     0.854270000000     0.435530000000     0.0268613  
H234     H      0.195040000000     0.809970000000     0.655730000000     0.0277449  
H235     H      0.230860000000     0.849410000000     0.510090000000     0.0512228  
H236     H      0.198420000000     0.814150000000     0.574470000000     0.0528808  
H237     H      0.147590000000     0.858900000000     0.517380000000     0.051616   
H238     H      0.183330000000     0.893300000000     0.580050000000     0.0564953  
H239     H      0.225410000000     0.844980000000     0.428110000000     0.0265644  
H240     H      0.145820000000     0.889490000000     0.676540000000     0.0388802  
H241     H      0.191300000000     0.801000000000     0.156580000000     0.026778   
H242     H      0.139810000000     0.846770000000     0.936570000000     0.0272011  
H243     H      0.104300000000     0.808010000000     0.081990000000     0.0510316  
H244     H      0.136940000000     0.842800000000     0.017810000000     0.0527168  
H245     H      0.186250000000     0.796320000000     0.074670000000     0.052053   
H246     H      0.150120000000     0.762470000000     0.011800000000     0.0564904  
H247     H      0.109860000000     0.812520000000     0.163860000000     0.0267557  
H248     H      0.125460000000     0.729190000000     0.908950000000     0.0387392  
H249     H      0.399330000000     0.897510000000     0.948430000000     0.026103   
H250     H      0.251510000000     0.908970000000     0.865310000000     0.027065   
H251     H      0.357040000000     0.963880000000     0.891040000000     0.051421   
H252     H      0.302290000000     0.933680000000     0.902040000000     0.052549   
H253     H      0.346940000000     0.872240000000     0.914750000000     0.0507117  
H254     H      0.321870000000     0.864720000000     0.843450000000     0.05633    
H255     H      0.408520000000     0.988170000000     0.926610000000     0.0270764  
H256     H      0.253290000000     0.800260000000     0.815020000000     0.0407241  
H257     H      0.859690000000     0.710650000000     0.989200000000     0.0265911  
H258     H      0.823910000000     0.710260000000     0.764680000000     0.0269075  
H259     H      0.768130000000     0.619940000000     0.917010000000     0.0513706  
H260     H      0.820900000000     0.711380000000     0.845970000000     0.0522101  
H261     H      0.854410000000     0.709770000000     0.907610000000     0.051458   
H262     H      0.796510000000     0.614100000000     0.851930000000     0.0567326  
H263     H      0.774210000000     0.621350000000     0.998910000000     0.0264029  
H264     H      0.818590000000     0.593980000000     0.756550000000     0.0400213  
H265     H      0.839840000000     0.714980000000     0.489590000000     0.0267498  
H266     H      0.893090000000     0.679570000000     0.263150000000     0.021736   
H267     H      0.858580000000     0.636150000000     0.412930000000     0.0525877  
H268     H      0.896520000000     0.684990000000     0.345600000000     0.0541261  
H269     H      0.840050000000     0.713370000000     0.407100000000     0.0528138  
H270     H      0.798330000000     0.659700000000     0.350520000000     0.0587639  
H271     H      0.857230000000     0.637490000000     0.495390000000     0.0264154  
H272     H      0.762740000000     0.621510000000     0.243290000000     0.0480325  
H273     H      0.588010000000     0.591390000000     0.511110000000     0.026412   
H274     H      0.745400000000     0.588020000000     0.565680000000     0.0257254  
H275     H      0.639900000000     0.530040000000     0.550240000000     0.0502728  
H276     H      0.692500000000     0.561280000000     0.535940000000     0.0516036  
H277     H      0.642330000000     0.619190000000     0.536950000000     0.0507967  
H278     H      0.674680000000     0.630410000000     0.598720000000     0.0564576  
H279     H      0.586550000000     0.503470000000     0.521050000000     0.0254802  
H280     H      0.744520000000     0.697000000000     0.615750000000     0.0404708  
H281     H      0.070400000000     0.823530000000     0.772640000000     0.0258972  
H282     H      0.917980000000     0.669770000000     0.688810000000     0.0266841  
H283     H      0.024090000000     0.717040000000     0.706500000000     0.0512095  
H284     H      0.970010000000     0.693440000000     0.721260000000     0.0521496  
H285     H      0.017180000000     0.798940000000     0.742310000000     0.0503277  
H286     H      0.989060000000     0.784370000000     0.673580000000     0.055998   
H287     H      0.076600000000     0.741720000000     0.739130000000     0.0267296  
H288     H      0.919980000000     0.782710000000     0.656520000000     0.039767   
N1       N      0.705660000000     0.920710000000     0.772860000000    -0.20168    
N2       N      0.790530000000     0.073890000000     0.674260000000    -0.197587   
N3       N      0.886190000000     0.249440000000     0.588800000000    -0.201092   
N4       N      0.961070000000     0.406180000000     0.501470000000    -0.197454   
N5       N      0.043300000000     0.583900000000     0.426280000000    -0.201694   
N6       N      0.121770000000     0.739650000000     0.334880000000    -0.197612   
N7       N      0.525670000000     0.587150000000     0.938370000000    -0.200923   
N8       N      0.608610000000     0.742780000000     0.846730000000    -0.197314   
N9       N      0.293050000000     0.073640000000     0.170240000000    -0.201053   
N10      N      0.213390000000     0.916890000000     0.257390000000    -0.197573   
N11      N      0.443530000000     0.410220000000     0.017940000000    -0.201932   
N12      N      0.370570000000     0.250290000000     0.090920000000    -0.197617   
N13      N      0.664700000000     0.818250000000     0.439310000000    -0.205914   
N14      N      0.649700000000     0.814050000000     0.678840000000    -0.198288   
N15      N      0.664730000000     0.841580000000     0.178680000000    -0.201581   
N16      N      0.666020000000     0.850780000000     0.939420000000    -0.198137   
N17      N      0.713560000000     0.780090000000     0.278370000000    -0.200382   
N18      N      0.792880000000     0.707430000000     0.177160000000    -0.198441   
N19      N      0.625810000000     0.870240000000     0.350240000000    -0.20317    
N20      N      0.547050000000     0.944350000000     0.448270000000    -0.19694    
N21      N      0.005930000000     0.515540000000     0.593770000000    -0.200494   
N22      N      0.996110000000     0.510770000000     0.833910000000    -0.197218   
N23      N      0.001140000000     0.474850000000     0.093280000000    -0.199976   
N24      N      0.998670000000     0.475700000000     0.333750000000    -0.197084   
N25      N      0.877030000000     0.616280000000     0.094890000000    -0.201153   
N26      N      0.955040000000     0.538430000000     0.002740000000    -0.19742    
N27      N      0.337600000000     0.145020000000     0.759380000000    -0.200494   
N28      N      0.328070000000     0.141340000000     0.999590000000    -0.197463   
N29      N      0.336680000000     0.183050000000     0.258830000000    -0.200829   
N30      N      0.330540000000     0.176780000000     0.499060000000    -0.197513   
N31      N      0.374620000000     0.111630000000     0.593670000000    -0.201418   
N32      N      0.454200000000     0.031860000000     0.513610000000    -0.197156   
N33      N      0.042460000000     0.448500000000     0.922660000000    -0.201471   
N34      N      0.122330000000     0.376770000000     0.816370000000    -0.197513   
N35      N      0.294260000000     0.210350000000     0.665230000000    -0.20077    
N36      N      0.213820000000     0.290720000000     0.737740000000    -0.197419   
N37      N      0.474210000000     0.479980000000     0.608380000000    -0.20105    
N38      N      0.471410000000     0.477770000000     0.848120000000    -0.198168   
N39      N      0.501920000000     0.513970000000     0.348490000000    -0.20275    
N40      N      0.495230000000     0.516990000000     0.108000000000    -0.197787   
N41      N      0.850670000000     0.180130000000     0.001410000000    -0.200244   
N42      N      0.853190000000     0.183500000000     0.761060000000    -0.197559   
N43      N      0.822700000000     0.138370000000     0.502490000000    -0.200558   
N44      N      0.818930000000     0.144060000000     0.262540000000    -0.197384   
N45      N      0.156710000000     0.339360000000     0.405340000000    -0.200428   
N46      N      0.153100000000     0.339990000000     0.645400000000    -0.19754    
N47      N      0.189430000000     0.334100000000     0.144390000000    -0.20062    
N48      N      0.183920000000     0.328970000000     0.904450000000    -0.19769    
N49      N      0.083120000000     0.291450000000     0.245330000000    -0.201574   
N50      N      0.924730000000     0.210580000000     0.163080000000    -0.197957   
N51      N      0.409880000000     0.458850000000     0.425730000000    -0.20262    
N52      N      0.264450000000     0.383180000000     0.306430000000    -0.198032   
N53      N      0.517510000000     0.988380000000     0.851010000000    -0.200348   
N54      N      0.515000000000     0.985300000000     0.610890000000    -0.197409   
N55      N      0.475480000000     0.983590000000     0.110080000000    -0.201145   
N56      N      0.484700000000     0.991150000000     0.350120000000    -0.197101   
N57      N      0.743410000000     0.112080000000     0.103220000000    -0.201674   
N58      N      0.585730000000     0.029140000000     0.018410000000    -0.197785   
N59      N      0.186180000000     0.848460000000     0.666220000000    -0.19974    
N60      N      0.183320000000     0.848710000000     0.425750000000    -0.197013   
N61      N      0.147680000000     0.807660000000     0.925790000000    -0.200055   
N62      N      0.151340000000     0.807690000000     0.166280000000    -0.196989   
N63      N      0.256060000000     0.871560000000     0.834500000000    -0.201392   
N64      N      0.407950000000     0.944700000000     0.939670000000    -0.197653   
N65      N      0.812910000000     0.661870000000     0.760240000000    -0.201417   
N66      N      0.817650000000     0.665830000000     0.000060000000    -0.19816    
N67      N      0.843660000000     0.664800000000     0.260090000000    -0.20571    
N68      N      0.847990000000     0.676020000000     0.498540000000    -0.19792    
N69      N      0.741700000000     0.625610000000     0.597300000000    -0.202433   
N70      N      0.583260000000     0.545410000000     0.514290000000    -0.198589   
N71      N      0.922170000000     0.713040000000     0.663830000000    -0.201424   
N72      N      0.077560000000     0.784570000000     0.757870000000    -0.197779   
Ni1      Ni     0.831550000000     0.645160000000     0.630160000000     1.00856    
Ni2      Ni     0.832480000000     0.694090000000     0.628960000000     1.00325    
Ni3      Ni     0.167660000000     0.804440000000     0.790510000000     1.00164    
Ni4      Ni     0.165870000000     0.851510000000     0.801420000000     1.00254    
Ni5      Ni     0.494910000000     0.961450000000     0.984310000000     1.00351    
Ni6      Ni     0.498050000000     0.011220000000     0.976860000000     1.00379    
Ni7      Ni     0.173440000000     0.313020000000     0.280400000000     1.00752    
Ni8      Ni     0.174650000000     0.361610000000     0.269650000000     1.00318    
Ni9      Ni     0.836610000000     0.138780000000     0.127430000000     1.00063    
Ni10     Ni     0.832080000000     0.184540000000     0.136820000000     1.00859    
Ni11     Ni     0.494920000000     0.476540000000     0.474010000000     1.00997    
Ni12     Ni     0.492360000000     0.523400000000     0.483610000000     1.01484    
Ni13     Ni     0.191890000000     0.358870000000     0.772860000000     1.00546    
Ni14     Ni     0.144130000000     0.309460000000     0.777220000000     1.00047    
Ni15     Ni     0.359550000000     0.183830000000     0.631340000000     1.00757    
Ni16     Ni     0.308880000000     0.137820000000     0.626570000000     0.997214   
Ni17     Ni     0.023330000000     0.516680000000     0.967030000000     1.00179    
Ni18     Ni     0.973740000000     0.469540000000     0.959830000000     0.999865   
Ni19     Ni     0.693570000000     0.849950000000     0.311450000000     1.00179    
Ni20     Ni     0.644010000000     0.802380000000     0.306240000000     1.02085    
Ni21     Ni     0.857820000000     0.686880000000     0.126480000000     1.00455    
Ni22     Ni     0.809170000000     0.638370000000     0.133340000000     1.01566    
Ni23     Ni     0.524160000000     0.012610000000     0.477620000000     1.00367    
Ni24     Ni     0.476440000000     0.963250000000     0.483100000000     0.998749   
Ni25     Ni     0.306360000000     0.159230000000     0.126860000000     0.996779   
Ni26     Ni     0.357380000000     0.164310000000     0.131350000000     1.0091     
Ni27     Ni     0.459000000000     0.497470000000     0.979070000000     0.995848   
Ni28     Ni     0.508710000000     0.499440000000     0.976470000000     1.0138     
Ni29     Ni     0.143560000000     0.829280000000     0.298520000000     0.999211   
Ni30     Ni     0.191200000000     0.827170000000     0.293490000000     1.00366    
Ni31     Ni     0.976840000000     0.493140000000     0.461160000000     0.999325   
Ni32     Ni     0.027250000000     0.496830000000     0.466330000000     1.00359    
Ni33     Ni     0.814980000000     0.163320000000     0.633110000000     1.00315    
Ni34     Ni     0.861860000000     0.159840000000     0.630490000000     1.00236    
Ni35     Ni     0.633260000000     0.832870000000     0.808440000000     0.998363   
Ni36     Ni     0.680740000000     0.830360000000     0.810170000000     1.01199    
O1       O      0.842450000000     0.651410000000     0.567110000000    -0.451219   
O2       O      0.820590000000     0.642140000000     0.693110000000    -0.45022    
O3       O      0.787710000000     0.625470000000     0.613990000000    -0.452308   
O4       O      0.875430000000     0.668010000000     0.646250000000    -0.452946   
O5       O      0.876960000000     0.713960000000     0.642290000000    -0.448402   
O6       O      0.787990000000     0.670940000000     0.616040000000    -0.449303   
O7       O      0.823380000000     0.688690000000     0.692470000000    -0.452271   
O8       O      0.841150000000     0.696140000000     0.565330000000    -0.450906   
O9       O      0.156650000000     0.795140000000     0.853400000000    -0.44617    
O10      O      0.178730000000     0.816950000000     0.728540000000    -0.449115   
O11      O      0.211470000000     0.827550000000     0.807260000000    -0.448896   
O12      O      0.123700000000     0.784370000000     0.774180000000    -0.449723   
O13      O      0.122040000000     0.828470000000     0.784740000000    -0.451084   
O14      O      0.209820000000     0.871530000000     0.817700000000    -0.449741   
O15      O      0.176890000000     0.860810000000     0.738530000000    -0.446345   
O16      O      0.154870000000     0.839020000000     0.863400000000    -0.450169   
O17      O      0.506790000000     0.964870000000     0.921850000000    -0.450151   
O18      O      0.483140000000     0.961150000000     0.046170000000    -0.451462   
O19      O      0.451280000000     0.942470000000     0.966290000000    -0.448872   
O20      O      0.538810000000     0.983790000000     0.001870000000    -0.447312   
O21      O      0.541550000000     0.030240000000     0.994020000000    -0.453455   
O22      O      0.454360000000     0.989150000000     0.959720000000    -0.45201    
O23      O      0.486500000000     0.007840000000     0.039890000000    -0.448404   
O24      O      0.509520000000     0.011160000000     0.914560000000    -0.449419   
O25      O      0.164870000000     0.315690000000     0.343160000000    -0.451291   
O26      O      0.181810000000     0.313400000000     0.216940000000    -0.44915    
O27      O      0.218070000000     0.336940000000     0.292400000000    -0.45029    
O28      O      0.128990000000     0.292310000000     0.267650000000    -0.44809    
O29      O      0.130340000000     0.337680000000     0.255860000000    -0.451298   
O30      O      0.218830000000     0.382450000000     0.284280000000    -0.450705   
O31      O      0.184150000000     0.359320000000     0.207110000000    -0.450328   
O32      O      0.165060000000     0.360570000000     0.332920000000    -0.447725   
O33      O      0.845260000000     0.149870000000     0.064540000000    -0.449437   
O34      O      0.827790000000     0.130860000000     0.191120000000    -0.447872   
O35      O      0.792120000000     0.116070000000     0.114310000000    -0.450367   
O36      O      0.880740000000     0.164400000000     0.141050000000    -0.451417   
O37      O      0.876570000000     0.207270000000     0.149950000000    -0.450961   
O38      O      0.787910000000     0.158770000000     0.123460000000    -0.450346   
O39      O      0.823560000000     0.173730000000     0.199560000000    -0.451766   
O40      O      0.840870000000     0.192410000000     0.073330000000    -0.449037   
O41      O      0.504970000000     0.488240000000     0.411670000000    -0.451778   
O42      O      0.484080000000     0.467660000000     0.536680000000    -0.450951   
O43      O      0.451180000000     0.455960000000     0.457370000000    -0.452176   
O44      O      0.538680000000     0.500340000000     0.490680000000    -0.453289   
O45      O      0.536500000000     0.544370000000     0.498710000000    -0.45321    
O46      O      0.449010000000     0.499890000000     0.466230000000    -0.453641   
O47      O      0.481860000000     0.511380000000     0.545870000000    -0.45256    
O48      O      0.501870000000     0.531630000000     0.420740000000    -0.455093   
O49      O      0.181650000000     0.361090000000     0.710790000000    -0.451395   
O50      O      0.199060000000     0.353590000000     0.835180000000    -0.452149   
O51      O      0.212730000000     0.336140000000     0.754530000000    -0.448827   
O52      O      0.167890000000     0.378190000000     0.791830000000    -0.449704   
O53      O      0.122940000000     0.332160000000     0.793500000000    -0.449423   
O54      O      0.168330000000     0.289920000000     0.760820000000    -0.450512   
O55      O      0.153830000000     0.308000000000     0.840010000000    -0.448648   
O56      O      0.137780000000     0.314210000000     0.714090000000    -0.448771   
O57      O      0.355320000000     0.191150000000     0.568530000000    -0.450435   
O58      O      0.360420000000     0.173500000000     0.693880000000    -0.446711   
O59      O      0.377360000000     0.158280000000     0.613960000000    -0.451715   
O60      O      0.338510000000     0.206440000000     0.648360000000    -0.449302   
O61      O      0.291040000000     0.163870000000     0.641800000000    -0.448232   
O62      O      0.330170000000     0.114860000000     0.611870000000    -0.446523   
O63      O      0.312540000000     0.131330000000     0.689860000000    -0.449361   
O64      O      0.308480000000     0.147330000000     0.563550000000    -0.449345   
O65      O      0.023880000000     0.505030000000     0.029160000000    -0.44816    
O66      O      0.019480000000     0.525050000000     0.904420000000    -0.448759   
O67      O      0.000480000000     0.537320000000     0.985110000000    -0.450484   
O68      O      0.043000000000     0.493110000000     0.948310000000    -0.4513     
O69      O      0.996830000000     0.448640000000     0.943560000000    -0.446481   
O70      O      0.953940000000     0.493540000000     0.976630000000    -0.448637   
O71      O      0.973560000000     0.480390000000     0.897430000000    -0.449941   
O72      O      0.977090000000     0.461750000000     0.022670000000    -0.448273   
O73      O      0.690250000000     0.855590000000     0.247790000000    -0.451241   
O74      O      0.693110000000     0.841450000000     0.375040000000    -0.449979   
O75      O      0.713520000000     0.825610000000     0.298330000000    -0.450923   
O76      O      0.670420000000     0.871110000000     0.324560000000    -0.450392   
O77      O      0.624160000000     0.826220000000     0.321630000000    -0.455311   
O78      O      0.667400000000     0.781330000000     0.292700000000    -0.447268   
O79      O      0.646690000000     0.796970000000     0.369430000000    -0.458708   
O80      O      0.643760000000     0.811610000000     0.243300000000    -0.451945   
O81      O      0.864270000000     0.683350000000     0.189870000000    -0.450592   
O82      O      0.847860000000     0.687390000000     0.063940000000    -0.452821   
O83      O      0.834990000000     0.708050000000     0.142270000000    -0.449092   
O84      O      0.877440000000     0.662520000000     0.111300000000    -0.450612   
O85      O      0.832160000000     0.617350000000     0.117660000000    -0.45051    
O86      O      0.789870000000     0.662410000000     0.150420000000    -0.45417    
O87      O      0.802360000000     0.642160000000     0.070120000000    -0.452669   
O88      O      0.818480000000     0.638210000000     0.195830000000    -0.456451   
O89      O      0.530500000000     0.009110000000     0.541010000000    -0.450587   
O90      O      0.514610000000     0.012990000000     0.414490000000    -0.449369   
O91      O      0.499930000000     0.032340000000     0.492750000000    -0.450568   
O92      O      0.545380000000     0.989640000000     0.463240000000    -0.449693   
O93      O      0.500860000000     0.943440000000     0.468470000000    -0.447348   
O94      O      0.455130000000     0.986300000000     0.497250000000    -0.44683    
O95      O      0.470060000000     0.966820000000     0.419760000000    -0.449836   
O96      O      0.485920000000     0.962940000000     0.546170000000    -0.449494   
O97      O      0.305570000000     0.148360000000     0.064080000000    -0.448065   
O98      O      0.310650000000     0.170490000000     0.189910000000    -0.448286   
O99      O      0.326900000000     0.202970000000     0.110460000000    -0.44857    
O100     O      0.289140000000     0.115880000000     0.143800000000    -0.449487   
O101     O      0.336870000000     0.121080000000     0.150050000000    -0.449707   
O102     O      0.374520000000     0.207230000000     0.112490000000    -0.451054   
O103     O      0.358790000000     0.176490000000     0.193340000000    -0.450254   
O104     O      0.352750000000     0.151850000000     0.069040000000    -0.451898   
O105     O      0.466850000000     0.508110000000     0.042000000000    -0.450299   
O106     O      0.454240000000     0.486810000000     0.916060000000    -0.451279   
O107     O      0.440340000000     0.453590000000     0.994920000000    -0.446515   
O108     O      0.481180000000     0.541510000000     0.963020000000    -0.444506   
O109     O      0.527090000000     0.542470000000     0.958200000000    -0.453901   
O110     O      0.487240000000     0.456360000000     0.995030000000    -0.453679   
O111     O      0.499930000000     0.486950000000     0.914130000000    -0.451751   
O112     O      0.514110000000     0.511640000000     0.039030000000    -0.450855   
O113     O      0.153480000000     0.840280000000     0.361220000000    -0.448662   
O114     O      0.136810000000     0.818270000000     0.235480000000    -0.449023   
O115     O      0.122340000000     0.785380000000     0.314630000000    -0.447903   
O116     O      0.167900000000     0.872950000000     0.281990000000    -0.448978   
O117     O      0.212160000000     0.870610000000     0.275690000000    -0.450471   
O118     O      0.167240000000     0.783970000000     0.311700000000    -0.451524   
O119     O      0.180760000000     0.815210000000     0.231080000000    -0.448274   
O120     O      0.198430000000     0.839130000000     0.356250000000    -0.448785   
O121     O      0.980770000000     0.503930000000     0.524270000000    -0.449142   
O122     O      0.976240000000     0.482580000000     0.398350000000    -0.448493   
O123     O      0.958400000000     0.449510000000     0.477280000000    -0.449366   
O124     O      0.998610000000     0.537080000000     0.445540000000    -0.447551   
O125     O      0.045570000000     0.540070000000     0.448630000000    -0.450788   
O126     O      0.005640000000     0.453250000000     0.483650000000    -0.450017   
O127     O      0.023110000000     0.485350000000     0.403470000000    -0.449463   
O128     O      0.028190000000     0.508300000000     0.528760000000    -0.448177   
O129     O      0.808410000000     0.150820000000     0.570670000000    -0.450694   
O130     O      0.824610000000     0.175550000000     0.695410000000    -0.450253   
O131     O      0.840240000000     0.206490000000     0.614690000000    -0.450205   
O132     O      0.792770000000     0.119890000000     0.651270000000    -0.44956    
O133     O      0.836880000000     0.116990000000     0.650220000000    -0.450034   
O134     O      0.883800000000     0.202950000000     0.610890000000    -0.448694   
O135     O      0.868820000000     0.172890000000     0.692750000000    -0.449671   
O136     O      0.851730000000     0.146880000000     0.568460000000    -0.447964   
O137     O      0.639350000000     0.842610000000     0.871870000000    -0.449739   
O138     O      0.630540000000     0.823260000000     0.744970000000    -0.449675   
O139     O      0.610780000000     0.788700000000     0.823050000000    -0.447676   
O140     O      0.658820000000     0.876780000000     0.794160000000    -0.448252   
O141     O      0.702820000000     0.873840000000     0.792450000000    -0.451621   
O142     O      0.655520000000     0.787110000000     0.827770000000    -0.451723   
O143     O      0.673620000000     0.818580000000     0.747650000000    -0.453614   
O144     O      0.684830000000     0.842300000000     0.872600000000    -0.453239   
S1       S      0.662550000000     0.934620000000     0.813300000000    -0.0415586  
S2       S      0.933140000000     0.239230000000     0.552280000000    -0.0424714  
S3       S      0.995320000000     0.591860000000     0.463210000000    -0.0422074  
S4       S      0.478810000000     0.596990000000     0.975350000000    -0.0419601  
S5       S      0.350360000000     0.085210000000     0.208330000000    -0.04114    
S6       S      0.499430000000     0.423930000000     0.062370000000    -0.0422607  
S7       S      0.603790000000     0.808030000000     0.423950000000    -0.0722306  
S8       S      0.599480000000     0.799790000000     0.176600000000    -0.0379611  
S9       S      0.660100000000     0.721490000000     0.294520000000    -0.0376481  
S10      S      0.654320000000     0.918050000000     0.287230000000    -0.0491024  
S11      S      0.070940000000     0.537910000000     0.598480000000    -0.041196   
S12      S      0.943810000000     0.417800000000     0.088310000000    -0.0405242  
S13      S      0.830340000000     0.560460000000     0.133890000000    -0.0421458  
S14      S      0.402720000000     0.186860000000     0.764180000000    -0.0390731  
S15      S      0.402180000000     0.207840000000     0.261500000000    -0.04153    
S16      S      0.326060000000     0.056720000000     0.631530000000    -0.0417822  
S17      S      0.995630000000     0.391030000000     0.956540000000    -0.0418792  
S18      S      0.350650000000     0.256240000000     0.704840000000    -0.0381989  
S19      S      0.484620000000     0.428770000000     0.603070000000    -0.0401758  
S20      S      0.467150000000     0.545190000000     0.358510000000    -0.0420686  
S21      S      0.842540000000     0.232710000000     0.007450000000    -0.0408239  
S22      S      0.869300000000     0.121090000000     0.498980000000    -0.0412273  
S23      S      0.164180000000     0.399710000000     0.398840000000    -0.0410107  
S24      S      0.181240000000     0.273450000000     0.151410000000    -0.0386657  
S25      S      0.073690000000     0.237440000000     0.290510000000    -0.0405671  
S26      S      0.425390000000     0.518950000000     0.394720000000    -0.0290976  
S27      S      0.516460000000     0.930780000000     0.856580000000    -0.0408056  
S28      S      0.448030000000     0.918230000000     0.113590000000    -0.0427403  
S29      S      0.731000000000     0.155150000000     0.147120000000    -0.0426742  
S30      S      0.177750000000     0.900800000000     0.672470000000    -0.0399813  
S31      S      0.154570000000     0.754420000000     0.919220000000    -0.041001   
S32      S      0.268040000000     0.828030000000     0.791290000000    -0.0426403  
S33      S      0.792510000000     0.597510000000     0.760790000000    -0.0411056  
S34      S      0.781010000000     0.652060000000     0.257620000000    -0.0717728  
S35      S      0.732050000000     0.670180000000     0.641630000000    -0.0425242  
S36      S      0.933350000000     0.770370000000     0.628240000000    -0.0423283  


