data_structure

_audit_creation_method RASPA-1.0
_audit_creation_date 2023-6-5
_audit_author_name 'Poobodin Mano'

_cell_length_a    62.9119
_cell_length_b    62.9308
_cell_length_c    38.0533
_cell_angle_alpha 89.9591
_cell_angle_beta  90.0405
_cell_angle_gamma 119.887
_cell_volume      130621

_symmetry_cell_setting          triclinic
_symmetry_space_group_name_Hall 'P 1'
_symmetry_space_group_name_H-M  'P 1'
_symmetry_Int_Tables_number     1

_symmetry_equiv_pos_as_xyz 'x,y,z'

loop_
_atom_site_label
_atom_site_type_symbol
_atom_site_fract_x
_atom_site_fract_y
_atom_site_fract_z
_atom_site_charge
C1       C      0.824930000000     0.657940000000     0.706920000000     0.4393     
C2       C      0.844360000000     0.667310000000     0.575710000000     0.436102   
C3       C      0.880270000000     0.685170000000     0.656940000000     0.439973   
C4       C      0.789090000000     0.639510000000     0.626010000000     0.434893   
C5       C      0.181340000000     0.838220000000     0.731800000000     0.437214   
C6       C      0.158050000000     0.823200000000     0.862130000000     0.436285   
C7       C      0.124400000000     0.806540000000     0.778830000000     0.434321   
C8       C      0.214760000000     0.854620000000     0.814840000000     0.433986   
C9       C      0.513590000000     0.008590000000     0.897350000000     0.436642   
C10      C      0.493770000000     0.002310000000     0.028750000000     0.434369   
C11      C      0.457620000000     0.982900000000     0.947890000000     0.436104   
C12      C      0.549300000000     0.028050000000     0.978070000000     0.435775   
C13      C      0.157210000000     0.325860000000     0.373380000000     0.437556   
C14      C      0.178250000000     0.336140000000     0.242170000000     0.436892   
C15      C      0.213520000000     0.354660000000     0.324170000000     0.435975   
C16      C      0.122410000000     0.307640000000     0.291230000000     0.434002   
C17      C      0.847640000000     0.174880000000     0.070000000000     0.437787   
C18      C      0.824560000000     0.161030000000     0.200400000000     0.436636   
C19      C      0.790450000000     0.145010000000     0.117120000000     0.434201   
C20      C      0.881050000000     0.190510000000     0.152840000000     0.435868   
C21      C      0.513390000000     0.498090000000     0.402380000000     0.434077   
C22      C      0.493830000000     0.488360000000     0.534000000000     0.436334   
C23      C      0.457770000000     0.471200000000     0.452450000000     0.433646   
C24      C      0.549000000000     0.515060000000     0.484000000000     0.434233   
C25      C      0.150780000000     0.327110000000     0.742710000000     0.435862   
C26      C      0.166800000000     0.322200000000     0.873370000000     0.435669   
C27      C      0.181420000000     0.301610000000     0.791970000000     0.437512   
C28      C      0.135870000000     0.347460000000     0.823760000000     0.437887   
C29      C      0.334850000000     0.158710000000     0.696310000000     0.436686   
C30      C      0.325240000000     0.172560000000     0.565950000000     0.437319   
C31      C      0.306930000000     0.187380000000     0.648900000000     0.435344   
C32      C      0.353340000000     0.143330000000     0.613160000000     0.435865   
C33      C      0.995710000000     0.485040000000     0.038940000000     0.437842   
C34      C      0.994420000000     0.504900000000     0.908790000000     0.438788   
C35      C      0.972670000000     0.517810000000     0.990190000000     0.437228   
C36      C      0.017800000000     0.471800000000     0.957330000000     0.434645   
C37      C      0.656880000000     0.831650000000     0.241720000000     0.435678   
C38      C      0.655870000000     0.814210000000     0.373170000000     0.438156   
C39      C      0.679480000000     0.799660000000     0.294350000000     0.437048   
C40      C      0.633970000000     0.846450000000     0.320300000000     0.437235   
C41      C      0.835770000000     0.657360000000     0.206520000000     0.435185   
C42      C      0.819770000000     0.664100000000     0.076360000000     0.435099   
C43      C      0.803350000000     0.681560000000     0.159200000000     0.434857   
C44      C      0.852050000000     0.639790000000     0.123740000000     0.43507    
C45      C      0.482910000000     0.995320000000     0.397770000000     0.43417    
C46      C      0.504770000000     0.997140000000     0.527310000000     0.43407    
C47      C      0.515180000000     0.971760000000     0.447030000000     0.43426    
C48      C      0.473110000000     0.021110000000     0.477430000000     0.43701    
C49      C      0.319580000000     0.147170000000     0.064940000000     0.435533   
C50      C      0.323990000000     0.167510000000     0.195770000000     0.435163   
C51      C      0.344220000000     0.203000000000     0.114710000000     0.436398   
C52      C      0.299180000000     0.111600000000     0.146260000000     0.436085   
C53      C      0.498490000000     0.501290000000     0.035650000000     0.434895   
C54      C      0.491460000000     0.482790000000     0.904400000000     0.435066   
C55      C      0.471700000000     0.446410000000     0.984960000000     0.434128   
C56      C      0.519140000000     0.538040000000     0.956010000000     0.435752   
C57      C      0.172960000000     0.834650000000     0.361770000000     0.43478    
C58      C      0.154970000000     0.813020000000     0.231480000000     0.434463   
C59      C      0.141580000000     0.778360000000     0.313570000000     0.436443   
C60      C      0.186160000000     0.869240000000     0.279790000000     0.434748   
C61      C      0.003420000000     0.504450000000     0.539250000000     0.433926   
C62      C      0.998450000000     0.482540000000     0.408960000000     0.436247   
C63      C      0.980650000000     0.448080000000     0.491010000000     0.437729   
C64      C      0.021530000000     0.538740000000     0.456800000000     0.433811   
C65      C      0.825990000000     0.148010000000     0.569150000000     0.434918   
C66      C      0.842360000000     0.168850000000     0.699810000000     0.435156   
C67      C      0.857730000000     0.203820000000     0.618200000000     0.434456   
C68      C      0.810480000000     0.112910000000     0.650990000000     0.434964   
C69      C      0.667190000000     0.839020000000     0.872810000000     0.437752   
C70      C      0.658420000000     0.814940000000     0.743060000000     0.435502   
C71      C      0.640500000000     0.781620000000     0.826180000000     0.434107   
C72      C      0.684850000000     0.872070000000     0.790090000000     0.436567   
C73      C      0.697950000000     0.933700000000     0.761300000000    -0.107371   
C74      C      0.810040000000     0.075860000000     0.665780000000     0.074569   
C75      C      0.773570000000     0.078010000000     0.670220000000     0.0749433  
C76      C      0.797970000000     0.051990000000     0.679100000000    -0.0943224  
C77      C      0.763850000000     0.997260000000     0.691450000000    -0.0360009  
C78      C      0.751630000000     0.973890000000     0.706510000000    -0.0342134  
C79      C      0.760370000000     0.016160000000     0.704660000000    -0.00675151 
C80      C      0.760980000000     0.054230000000     0.683690000000    -0.0947599  
C81      C      0.735720000000     0.968910000000     0.735180000000    -0.00952989 
C82      C      0.734040000000     0.930200000000     0.755620000000    -0.0977015  
C83      C      0.732420000000     0.987890000000     0.748530000000    -0.0343025  
C84      C      0.721140000000     0.906630000000     0.769660000000     0.074638   
C85      C      0.685330000000     0.910030000000     0.775560000000     0.106408   
C86      C      0.744570000000     0.011210000000     0.733430000000    -0.0358838  
C87      C      0.773230000000     0.041020000000     0.688720000000     0.0502708  
C88      C      0.722410000000     0.943950000000     0.750870000000     0.056115   
C89      C      0.970070000000     0.387050000000     0.518910000000    -0.107377   
C90      C      0.858050000000     0.240890000000     0.604180000000     0.0747316  
C91      C      0.894780000000     0.239200000000     0.600390000000     0.0747176  
C92      C      0.870180000000     0.265070000000     0.592100000000    -0.0944085  
C93      C      0.903560000000     0.320000000000     0.583290000000    -0.0359478  
C94      C      0.915560000000     0.343800000000     0.569660000000    -0.0343681  
C95      C      0.908140000000     0.301940000000     0.569510000000    -0.00672555 
C96      C      0.907470000000     0.263340000000     0.588220000000    -0.0945252  
C97      C      0.932410000000     0.350100000000     0.541940000000    -0.00950724 
C98      C      0.932570000000     0.388150000000     0.522130000000    -0.0978599  
C99      C      0.937020000000     0.332050000000     0.528190000000    -0.0343536  
C100     C      0.944880000000     0.412050000000     0.509180000000     0.0745736  
C101     C      0.982120000000     0.411090000000     0.505830000000     0.10703    
C102     C      0.925030000000     0.308260000000     0.541810000000    -0.0358026  
C103     C      0.895140000000     0.276530000000     0.583620000000     0.0501885  
C104     C      0.945180000000     0.375420000000     0.527490000000     0.0562205  
C105     C      0.128700000000     0.717040000000     0.343900000000    -0.107728   
C106     C      0.018890000000     0.573580000000     0.438160000000     0.0735056  
C107     C      0.057510000000     0.575620000000     0.440570000000     0.0747383  
C108     C      0.029860000000     0.597450000000     0.424850000000    -0.0936899  
C109     C      0.055640000000     0.641640000000     0.376530000000    -0.0358901  
C110     C      0.067500000000     0.664820000000     0.360830000000    -0.0344864  
C111     C      0.067260000000     0.635650000000     0.403230000000    -0.00663554 
C112     C      0.069020000000     0.599400000000     0.427120000000    -0.0944295  
C113     C      0.091290000000     0.682440000000     0.371270000000    -0.00979161 
C114     C      0.092400000000     0.720260000000     0.348310000000    -0.098047   
C115     C      0.102770000000     0.676610000000     0.398240000000    -0.0344402  
C116     C      0.105270000000     0.743710000000     0.333860000000     0.0743265  
C117     C      0.141260000000     0.740530000000     0.329010000000     0.106008   
C118     C      0.090870000000     0.653550000000     0.414140000000    -0.0359527  
C119     C      0.055220000000     0.610610000000     0.418820000000     0.0498356  
C120     C      0.104240000000     0.706860000000     0.354150000000     0.056305   
C121     C      0.568980000000     0.600320000000     0.932720000000    -0.107825   
C122     C      0.603620000000     0.745200000000     0.841440000000     0.0748312  
C123     C      0.641680000000     0.746150000000     0.845340000000     0.0744315  
C124     C      0.591330000000     0.721190000000     0.854170000000    -0.094363   
C125     C      0.572180000000     0.676680000000     0.901460000000    -0.0358727  
C126     C      0.560310000000     0.652960000000     0.915360000000    -0.0345911  
C127     C      0.591780000000     0.684090000000     0.877730000000    -0.00676037 
C128     C      0.629990000000     0.722190000000     0.858300000000    -0.0942541  
C129     C      0.567850000000     0.636130000000     0.906050000000    -0.00967883 
C130     C      0.529890000000     0.597360000000     0.923410000000    -0.0977578  
C131     C      0.587420000000     0.643500000000     0.882350000000    -0.0345484  
C132     C      0.518500000000     0.573410000000     0.936220000000     0.0741648  
C133     C      0.557210000000     0.576320000000     0.945880000000     0.106545   
C134     C      0.599200000000     0.667170000000     0.868300000000    -0.0358732  
C135     C      0.604510000000     0.709420000000     0.863110000000     0.0499351  
C136     C      0.555390000000     0.610950000000     0.920920000000     0.0560306  
C137     C      0.251350000000     0.049430000000     0.174280000000    -0.107496   
C138     C      0.222470000000     0.905450000000     0.261940000000     0.0746063  
C139     C      0.184670000000     0.905140000000     0.264300000000     0.0748228  
C140     C      0.234290000000     0.929500000000     0.249290000000    -0.0941304  
C141     C      0.250900000000     0.974020000000     0.202400000000    -0.0355903  
C142     C      0.261700000000     0.997540000000     0.187910000000    -0.0345169  
C143     C      0.232940000000     0.966840000000     0.228770000000    -0.00674633 
C144     C      0.195870000000     0.929100000000     0.251510000000    -0.0943156  
C145     C      0.254650000000     0.014370000000     0.199260000000    -0.00959566 
C146     C      0.291090000000     0.053140000000     0.178330000000    -0.0979157  
C147     C      0.236820000000     0.007290000000     0.225720000000    -0.0344699  
C148     C      0.301400000000     0.076890000000     0.165030000000     0.0744128  
C149     C      0.262020000000     0.073250000000     0.160580000000     0.106025   
C150     C      0.226160000000     0.983850000000     0.240390000000    -0.0357188  
C151     C      0.220950000000     0.941580000000     0.243550000000     0.0500683  
C152     C      0.265860000000     0.039280000000     0.183670000000     0.0562686  
C153     C      0.357630000000     0.264880000000     0.086600000000    -0.107559   
C154     C      0.471580000000     0.409630000000     0.000300000000     0.0741976  
C155     C      0.434370000000     0.410550000000     0.000540000000     0.0743791  
C156     C      0.459410000000     0.385460000000     0.012420000000    -0.094694   
C157     C      0.432190000000     0.340920000000     0.059390000000    -0.0359895  
C158     C      0.419710000000     0.317280000000     0.073530000000    -0.0346456  
C159     C      0.421100000000     0.348260000000     0.033630000000    -0.00684549 
C160     C      0.421650000000     0.386410000000     0.012740000000    -0.0943671  
C161     C      0.395820000000     0.300460000000     0.062350000000    -0.00960921 
C162     C      0.394120000000     0.261880000000     0.083420000000    -0.097856   
C163     C      0.384780000000     0.307730000000     0.036470000000    -0.0345104  
C164     C      0.380980000000     0.238110000000     0.096750000000     0.0744873  
C165     C      0.344800000000     0.241030000000     0.100270000000     0.106145   
C166     C      0.397280000000     0.331330000000     0.022240000000    -0.0359937  
C167     C      0.434180000000     0.373610000000     0.019210000000     0.0498756  
C168     C      0.382370000000     0.275410000000     0.077630000000     0.0560091  
C169     C      0.633380000000     0.793030000000     0.463300000000    -0.108731   
C170     C      0.676700000000     0.812340000000     0.689670000000     0.0747313  
C171     C      0.635630000000     0.804150000000     0.689760000000     0.0753405  
C172     C      0.676190000000     0.810020000000     0.653140000000    -0.0941158  
C173     C      0.668650000000     0.796200000000     0.576190000000    -0.0356777  
C174     C      0.669020000000     0.796720000000     0.539440000000    -0.0348788  
C175     C      0.654560000000     0.804070000000     0.595130000000    -0.00674762 
C176     C      0.634280000000     0.801110000000     0.653370000000    -0.0944464  
C177     C      0.654910000000     0.804580000000     0.520920000000    -0.0100732  
C178     C      0.677020000000     0.819750000000     0.464000000000    -0.0988057  
C179     C      0.640590000000     0.812080000000     0.539550000000    -0.0345235  
C180     C      0.676550000000     0.822190000000     0.427610000000     0.0758445  
C181     C      0.633330000000     0.795390000000     0.426730000000     0.107109   
C182     C      0.640600000000     0.812090000000     0.576200000000    -0.0354961  
C183     C      0.654920000000     0.804730000000     0.634330000000     0.0500337  
C184     C      0.655230000000     0.805390000000     0.482160000000     0.0571835  
C185     C      0.655060000000     0.853860000000     0.961870000000    -0.108012   
C186     C      0.639960000000     0.818020000000     0.184790000000     0.075368   
C187     C      0.676250000000     0.856470000000     0.191440000000     0.0748246  
C188     C      0.641410000000     0.820600000000     0.148360000000    -0.0956611  
C189     C      0.661970000000     0.823800000000     0.074990000000    -0.0358943  
C190     C      0.664320000000     0.825310000000     0.038510000000    -0.0341443  
C191     C      0.663470000000     0.843460000000     0.094430000000    -0.0072246  
C192     C      0.678050000000     0.859800000000     0.155010000000    -0.0950461  
C193     C      0.667930000000     0.846390000000     0.020670000000    -0.00999322 
C194     C      0.684770000000     0.840540000000     0.964530000000    -0.0988744  
C195     C      0.669430000000     0.866090000000     0.040050000000    -0.0344515  
C196     C      0.684480000000     0.839280000000     0.928000000000     0.0758199  
C197     C      0.654880000000     0.852230000000     0.925110000000     0.107124   
C198     C      0.667450000000     0.864730000000     0.076720000000    -0.0361798  
C199     C      0.660790000000     0.841480000000     0.133090000000     0.0509032  
C200     C      0.669530000000     0.847310000000     0.981860000000     0.0568897  
C201     C      0.728590000000     0.785720000000     0.272400000000    -0.107302   
C202     C      0.765630000000     0.679020000000     0.175790000000     0.0747607  
C203     C      0.802610000000     0.717200000000     0.178320000000     0.0749563  
C204     C      0.752550000000     0.689700000000     0.189440000000    -0.0949986  
C205     C      0.729280000000     0.722040000000     0.200620000000    -0.0362659  
C206     C      0.717170000000     0.733370000000     0.215560000000    -0.0340173  
C207     C      0.751600000000     0.725970000000     0.214680000000    -0.00689576 
C208     C      0.790150000000     0.728380000000     0.192410000000    -0.0951003  
C209     C      0.727000000000     0.748680000000     0.245110000000    -0.00959582 
C210     C      0.689230000000     0.750430000000     0.261750000000    -0.0976107  
C211     C      0.749060000000     0.752080000000     0.259590000000    -0.0341495  
C212     C      0.678160000000     0.763390000000     0.274350000000     0.074309   
C213     C      0.717140000000     0.798310000000     0.285380000000     0.106334   
C214     C      0.761290000000     0.740980000000     0.244420000000    -0.0362086  
C215     C      0.764880000000     0.714550000000     0.198430000000     0.0505324  
C216     C      0.714750000000     0.761690000000     0.260060000000     0.0559753  
C217     C      0.621000000000     0.895610000000     0.345210000000    -0.107822   
C218     C      0.513100000000     0.933550000000     0.435270000000     0.0743759  
C219     C      0.550710000000     0.970690000000     0.428250000000     0.074548   
C220     C      0.523940000000     0.920110000000     0.423590000000    -0.0945915  
C221     C      0.548000000000     0.898970000000     0.376490000000    -0.0359862  
C222     C      0.559570000000     0.886820000000     0.362420000000    -0.0345186  
C223     C      0.560460000000     0.918480000000     0.400210000000    -0.00690171 
C224     C      0.562100000000     0.957840000000     0.416540000000    -0.0950399  
C225     C      0.583850000000     0.893970000000     0.371740000000    -0.00962407 
C226     C      0.584650000000     0.856380000000     0.351660000000    -0.0976907  
C227     C      0.596100000000     0.913160000000     0.395970000000    -0.0343994  
C228     C      0.597400000000     0.845290000000     0.338290000000     0.0750512  
C229     C      0.633410000000     0.884140000000     0.331640000000     0.107141   
C230     C      0.584550000000     0.925260000000     0.410040000000    -0.0359887  
C231     C      0.548690000000     0.932260000000     0.413820000000     0.0502036  
C232     C      0.596600000000     0.881770000000     0.356010000000     0.0563162  
C233     C      0.974790000000     0.501900000000     0.816810000000    -0.107396   
C234     C      0.024310000000     0.514300000000     0.594370000000     0.074326   
C235     C      0.983580000000     0.507060000000     0.590910000000     0.0754421  
C236     C      0.024350000000     0.517160000000     0.630820000000    -0.0948641  
C237     C      0.019480000000     0.534580000000     0.705830000000    -0.0359124  
C238     C      0.017910000000     0.534720000000     0.742520000000    -0.0351141  
C239     C      0.001920000000     0.514550000000     0.686400000000    -0.0079751  
C240     C      0.982840000000     0.509320000000     0.627290000000    -0.0949192  
C241     C      0.999010000000     0.514590000000     0.760550000000    -0.00842706 
C242     C      0.018710000000     0.525300000000     0.820490000000    -0.0979295  
C243     C      0.981670000000     0.494460000000     0.740770000000    -0.0343621  
C244     C      0.016910000000     0.523110000000     0.857020000000     0.0754597  
C245     C      0.973480000000     0.499540000000     0.853450000000     0.108392   
C246     C      0.982970000000     0.494570000000     0.704170000000    -0.0351057  
C247     C      0.003250000000     0.514120000000     0.647640000000     0.0501416  
C248     C      0.997530000000     0.514130000000     0.799730000000     0.0565103  
C249     C      0.974430000000     0.462670000000     0.129120000000    -0.108291   
C250     C      0.018050000000     0.481810000000     0.355720000000     0.0742298  
C251     C      0.976210000000     0.471050000000     0.355250000000     0.0757296  
C252     C      0.017990000000     0.480000000000     0.319080000000    -0.0943687  
C253     C      0.011500000000     0.467140000000     0.241440000000    -0.0363097  
C254     C      0.011680000000     0.467800000000     0.204640000000    -0.0353474  
C255     C      0.996450000000     0.473610000000     0.260740000000    -0.0060413  
C256     C      0.975340000000     0.468480000000     0.318810000000    -0.0944474  
C257     C      0.996460000000     0.474440000000     0.186450000000    -0.00930905 
C258     C      0.017950000000     0.490040000000     0.129110000000    -0.0991684  
C259     C      0.981340000000     0.480730000000     0.205500000000    -0.0345856  
C260     C      0.017040000000     0.492670000000     0.092810000000     0.07508    
C261     C      0.973950000000     0.465240000000     0.092620000000     0.106841   
C262     C      0.981510000000     0.480580000000     0.242140000000    -0.0355199  
C263     C      0.996560000000     0.473720000000     0.299980000000     0.0506041  
C264     C      0.996420000000     0.475290000000     0.147640000000     0.057493   
C265     C      0.924280000000     0.531730000000     0.017200000000    -0.107666   
C266     C      0.889430000000     0.642220000000     0.105370000000     0.074737   
C267     C      0.852740000000     0.603750000000     0.106770000000     0.0750859  
C268     C      0.902290000000     0.631260000000     0.091820000000    -0.0948582  
C269     C      0.926060000000     0.599360000000     0.081320000000    -0.0361112  
C270     C      0.937770000000     0.587450000000     0.066880000000    -0.0341932  
C271     C      0.902910000000     0.594180000000     0.069000000000    -0.00690326 
C272     C      0.864970000000     0.592260000000     0.092970000000    -0.0951708  
C273     C      0.926640000000     0.570260000000     0.039650000000    -0.00961615 
C274     C      0.963720000000     0.568050000000     0.020580000000    -0.0975276  
C275     C      0.903740000000     0.565610000000     0.026800000000    -0.034323   
C276     C      0.974380000000     0.554640000000     0.008260000000     0.0741645  
C277     C      0.935290000000     0.518590000000     0.004690000000     0.106031   
C278     C      0.891980000000     0.577350000000     0.041400000000    -0.0360835  
C279     C      0.889960000000     0.606060000000     0.084980000000     0.0505579  
C280     C      0.938400000000     0.556590000000     0.025470000000     0.0560792  
C281     C      0.350890000000     0.171430000000     0.790550000000    -0.108305   
C282     C      0.337350000000     0.140650000000     0.013710000000     0.0750852  
C283     C      0.301460000000     0.143840000000     0.008810000000     0.0751494  
C284     C      0.338560000000     0.139210000000     0.977190000000    -0.0952862  
C285     C      0.327260000000     0.125210000000     0.898460000000    -0.03633    
C286     C      0.330120000000     0.127160000000     0.861900000000    -0.0344223  
C287     C      0.323950000000     0.142510000000     0.917390000000    -0.00724395 
C288     C      0.302370000000     0.142890000000     0.972240000000    -0.0955289  
C289     C      0.330270000000     0.146740000000     0.843940000000    -0.0102681  
C290     C      0.318310000000     0.130000000000     0.783160000000    -0.0984643  
C291     C      0.327090000000     0.164060000000     0.862950000000    -0.034225   
C292     C      0.319820000000     0.133650000000     0.746880000000     0.074912   
C293     C      0.352410000000     0.174640000000     0.754030000000     0.106311   
C294     C      0.323780000000     0.161870000000     0.899280000000    -0.0360138  
C295     C      0.321310000000     0.140990000000     0.956080000000     0.0508574  
C296     C      0.333480000000     0.149220000000     0.805370000000     0.0568907  
C297     C      0.336720000000     0.199090000000     0.476550000000    -0.107609   
C298     C      0.306070000000     0.173850000000     0.246960000000     0.0747871  
C299     C      0.343340000000     0.173230000000     0.251500000000     0.074753   
C300     C      0.305620000000     0.176660000000     0.283310000000    -0.0945765  
C301     C      0.300950000000     0.165590000000     0.361360000000    -0.0358383  
C302     C      0.300250000000     0.165820000000     0.398060000000    -0.0342034  
C303     C      0.323330000000     0.178780000000     0.343320000000    -0.00661774 
C304     C      0.343390000000     0.175900000000     0.287910000000    -0.0944101  
C305     C      0.321920000000     0.179160000000     0.417630000000    -0.00949078 
C306     C      0.306230000000     0.156440000000     0.474520000000    -0.0977609  
C307     C      0.344230000000     0.192730000000     0.399560000000    -0.0341532  
C308     C      0.307200000000     0.155510000000     0.511050000000     0.0753401  
C309     C      0.337430000000     0.197740000000     0.513260000000     0.107127   
C310     C      0.344920000000     0.192600000000     0.362870000000    -0.0360416  
C311     C      0.324240000000     0.177370000000     0.304360000000     0.0501384  
C312     C      0.321470000000     0.178260000000     0.456720000000     0.056276   
C313     C      0.462260000000     0.071830000000     0.502750000000    -0.107461   
C314     C      0.353070000000     0.106720000000     0.596670000000     0.0751341  
C315     C      0.390250000000     0.144750000000     0.594930000000     0.0750095  
C316     C      0.364920000000     0.094640000000     0.583620000000    -0.0951682  
C317     C      0.398450000000     0.073080000000     0.573910000000    -0.036029   
C318     C      0.409980000000     0.061160000000     0.559100000000    -0.0342608  
C319     C      0.402500000000     0.095520000000     0.560190000000    -0.00697153 
C320     C      0.402630000000     0.133260000000     0.581530000000    -0.0949567  
C321     C      0.425690000000     0.071320000000     0.530040000000    -0.00960241 
C322     C      0.425690000000     0.033140000000     0.511320000000    -0.0977833  
C323     C      0.429690000000     0.093780000000     0.516310000000    -0.034311   
C324     C      0.437790000000     0.021410000000     0.498030000000     0.0745181  
C325     C      0.474070000000     0.059720000000     0.489150000000     0.106366   
C326     C      0.418300000000     0.105790000000     0.531320000000    -0.0359958  
C327     C      0.389910000000     0.107960000000     0.575500000000     0.0507104  
C328     C      0.438000000000     0.058610000000     0.514390000000     0.0561603  
C329     C      0.087440000000     0.361180000000     0.850490000000    -0.108007   
C330     C      0.054910000000     0.471850000000     0.944730000000     0.0744954  
C331     C      0.016700000000     0.435400000000     0.937490000000     0.0742304  
C332     C      0.067300000000     0.460120000000     0.932300000000    -0.0946576  
C333     C      0.086390000000     0.435130000000     0.883650000000    -0.0359307  
C334     C      0.097830000000     0.423040000000     0.869050000000    -0.0341812  
C335     C      0.066810000000     0.422970000000     0.907370000000    -0.00674578 
C336     C      0.028500000000     0.423120000000     0.924990000000    -0.094229   
C337     C      0.089940000000     0.398520000000     0.877820000000    -0.0097416  
C338     C      0.127050000000     0.396910000000     0.857690000000    -0.0980645  
C339     C      0.070570000000     0.386460000000     0.901850000000    -0.0342031  
C340     C      0.137730000000     0.383940000000     0.843770000000     0.0750546  
C341     C      0.098510000000     0.348540000000     0.836360000000     0.107115   
C342     C      0.059140000000     0.398540000000     0.916460000000    -0.036013   
C343     C      0.054080000000     0.435520000000     0.921940000000     0.0502331  
C344     C      0.101670000000     0.385400000000     0.861820000000     0.0566399  
C345     C      0.194870000000     0.253190000000     0.763610000000    -0.107908   
C346     C      0.307030000000     0.223720000000     0.666610000000     0.0747349  
C347     C      0.269900000000     0.185650000000     0.667020000000     0.075084   
C348     C      0.295040000000     0.235500000000     0.680320000000    -0.0947458  
C349     C      0.268720000000     0.252200000000     0.730050000000    -0.0358407  
C350     C      0.256470000000     0.263130000000     0.745690000000    -0.0343638  
C351     C      0.257090000000     0.233990000000     0.704200000000    -0.00678666 
C352     C      0.257370000000     0.196820000000     0.680910000000    -0.0946362  
C353     C      0.232270000000     0.255990000000     0.736030000000    -0.0098128  
C354     C      0.230740000000     0.292780000000     0.757400000000    -0.0983432  
C355     C      0.220650000000     0.237860000000     0.710170000000    -0.0342954  
C356     C      0.217780000000     0.303370000000     0.771550000000     0.0748794  
C357     C      0.182220000000     0.264160000000     0.778160000000     0.106477   
C358     C      0.232940000000     0.227030000000     0.694360000000    -0.0358742  
C359     C      0.269960000000     0.222000000000     0.688080000000     0.0503249  
C360     C      0.219160000000     0.267480000000     0.752650000000     0.056685   
C361     C      0.492610000000     0.503520000000     0.627800000000    -0.108028   
C362     C      0.509040000000     0.479900000000     0.850400000000     0.0749063  
C363     C      0.469510000000     0.475880000000     0.850690000000     0.0749541  
C364     C      0.508640000000     0.478580000000     0.813730000000    -0.0951346  
C365     C      0.468090000000     0.458940000000     0.736980000000    -0.0362442  
C366     C      0.467900000000     0.460240000000     0.700270000000    -0.034597   
C367     C      0.488260000000     0.476550000000     0.756280000000    -0.00723471 
C368     C      0.468320000000     0.474060000000     0.814100000000    -0.0951116  
C369     C      0.487650000000     0.479450000000     0.682360000000    -0.0100933  
C370     C      0.482770000000     0.461630000000     0.622210000000    -0.0983046  
C371     C      0.507810000000     0.496990000000     0.701680000000    -0.0343912  
C372     C      0.484560000000     0.464510000000     0.585780000000     0.0747089  
C373     C      0.493970000000     0.505960000000     0.591130000000     0.106113   
C374     C      0.508200000000     0.495450000000     0.738250000000    -0.0359223  
C375     C      0.488240000000     0.475940000000     0.795190000000     0.0505822  
C376     C      0.487370000000     0.481430000000     0.643600000000     0.0566094  
C377     C      0.526530000000     0.504550000000     0.118740000000    -0.0917193  
C378     C      0.521550000000     0.521000000000     0.349320000000     0.0748258  
C379     C      0.515140000000     0.480540000000     0.347780000000     0.0746704  
C380     C      0.523150000000     0.522450000000     0.312700000000    -0.095151   
C381     C      0.497470000000     0.483790000000     0.237300000000    -0.0351995  
C382     C      0.494880000000     0.484640000000     0.200980000000    -0.0364776  
C383     C      0.518240000000     0.502280000000     0.254430000000    -0.00815542 
C384     C      0.516120000000     0.481190000000     0.311100000000    -0.0954429  
C385     C      0.513240000000     0.503730000000     0.181050000000    -0.00666232 
C386     C      0.488800000000     0.505320000000     0.130380000000    -0.0945302  
C387     C      0.534370000000     0.521870000000     0.197940000000    -0.036541   
C388     C      0.484600000000     0.504970000000     0.094160000000     0.0776182  
C389     C      0.521160000000     0.504040000000     0.083150000000     0.0642504  
C390     C      0.536720000000     0.521320000000     0.234470000000    -0.0356121  
C391     C      0.519790000000     0.502170000000     0.293210000000     0.0507885  
C392     C      0.509770000000     0.504940000000     0.142880000000     0.0471293  
C393     C      0.862190000000     0.201300000000     0.980520000000    -0.107371   
C394     C      0.866700000000     0.175170000000     0.750920000000     0.0749305  
C395     C      0.829080000000     0.175070000000     0.755510000000     0.0747757  
C396     C      0.870110000000     0.178140000000     0.787240000000    -0.0944645  
C397     C      0.864100000000     0.167500000000     0.865340000000    -0.0357565  
C398     C      0.865200000000     0.167840000000     0.902020000000    -0.0341833  
C399     C      0.854860000000     0.180690000000     0.847280000000    -0.00657472 
C400     C      0.831830000000     0.177880000000     0.791910000000    -0.0943261  
C401     C      0.856970000000     0.181280000000     0.921610000000    -0.00939727 
C402     C      0.850290000000     0.158680000000     0.978560000000    -0.0976692  
C403     C      0.848170000000     0.194850000000     0.903530000000    -0.0341017  
C404     C      0.848570000000     0.157810000000     0.015110000000     0.0754616  
C405     C      0.860290000000     0.200000000000     0.017260000000     0.10709    
C406     C      0.847190000000     0.194610000000     0.866840000000    -0.03589    
C407     C      0.852390000000     0.179170000000     0.808330000000     0.0501454  
C408     C      0.856660000000     0.180460000000     0.960710000000     0.0562467  
C409     C      0.822060000000     0.174020000000     0.294680000000    -0.10828    
C410     C      0.840570000000     0.144080000000     0.513200000000     0.0749835  
C411     C      0.802050000000     0.142170000000     0.517670000000     0.0747032  
C412     C      0.838860000000     0.143250000000     0.476620000000    -0.0953155  
C413     C      0.796900000000     0.127290000000     0.402200000000    -0.0362936  
C414     C      0.796360000000     0.129470000000     0.365630000000    -0.0344463  
C415     C      0.817640000000     0.143920000000     0.421490000000    -0.00716753 
C416     C      0.799580000000     0.140910000000     0.481100000000    -0.0948878  
C417     C      0.816330000000     0.148640000000     0.347980000000    -0.0102534  
C418     C      0.811210000000     0.131960000000     0.287070000000    -0.0985259  
C419     C      0.836960000000     0.165290000000     0.367350000000    -0.0342142  
C420     C      0.813680000000     0.135740000000     0.250810000000     0.075101   
C421     C      0.824130000000     0.177380000000     0.258200000000     0.106379   
C422     C      0.837690000000     0.162850000000     0.403690000000    -0.0360635  
C423     C      0.818430000000     0.142130000000     0.460200000000     0.0506584  
C424     C      0.816020000000     0.151390000000     0.309390000000     0.0568368  
C425     C      0.150330000000     0.306720000000     0.466760000000    -0.10693    
C426     C      0.126610000000     0.309580000000     0.691320000000     0.0748555  
C427     C      0.164880000000     0.346300000000     0.687060000000     0.0751697  
C428     C      0.123680000000     0.309080000000     0.654880000000    -0.0944558  
C429     C      0.149600000000     0.347490000000     0.574610000000    -0.0358419  
C430     C      0.150190000000     0.346440000000     0.537980000000    -0.0340835  
C431     C      0.140400000000     0.326010000000     0.594880000000    -0.00660445 
C432     C      0.162650000000     0.346240000000     0.650580000000    -0.0944391  
C433     C      0.141350000000     0.323850000000     0.520650000000    -0.00930454 
C434     C      0.141100000000     0.339140000000     0.459770000000    -0.0977995  
C435     C      0.131230000000     0.302280000000     0.540850000000    -0.0343483  
C436     C      0.145400000000     0.339310000000     0.423830000000     0.0752379  
C437     C      0.154410000000     0.307050000000     0.430500000000     0.1062     
C438     C      0.130850000000     0.303350000000     0.577500000000    -0.035668   
C439     C      0.142030000000     0.327300000000     0.633920000000     0.0502221  
C440     C      0.143890000000     0.322980000000     0.481860000000     0.0561038  
C441     C      0.180120000000     0.352800000000     0.148410000000    -0.108567   
C442     C      0.191780000000     0.339310000000     0.924130000000     0.0751332  
C443     C      0.152340000000     0.304140000000     0.929610000000     0.0752159  
C444     C      0.194970000000     0.340240000000     0.960530000000    -0.0953094  
C445     C      0.198750000000     0.328050000000     0.038330000000    -0.0362652  
C446     C      0.200580000000     0.330810000000     0.074890000000    -0.0344987  
C447     C      0.178020000000     0.325560000000     0.020610000000    -0.00728123 
C448     C      0.154740000000     0.304810000000     0.966120000000    -0.0954389  
C449     C      0.181970000000     0.331680000000     0.094080000000    -0.0102894  
C450     C      0.187700000000     0.319180000000     0.154010000000    -0.0985317  
C451     C      0.161320000000     0.329280000000     0.076300000000    -0.0343731  
C452     C      0.186590000000     0.320750000000     0.190450000000     0.0746602  
C453     C      0.179510000000     0.354390000000     0.185080000000     0.106345   
C454     C      0.159280000000     0.326050000000     0.039940000000    -0.0359792  
C455     C      0.176090000000     0.323220000000     0.981930000000     0.0508445  
C456     C      0.183710000000     0.334830000000     0.132660000000     0.0569326  
C457     C      0.942200000000     0.238330000000     0.184370000000    -0.107407   
C458     C      0.086500000000     0.270460000000     0.274960000000     0.0740758  
C459     C      0.086130000000     0.307930000000     0.274160000000     0.0740249  
C460     C      0.062460000000     0.257940000000     0.262230000000    -0.0941176  
C461     C      0.018020000000     0.239830000000     0.214220000000    -0.0374366  
C462     C      0.994580000000     0.228610000000     0.199280000000    -0.03289    
C463     C      0.024750000000     0.258000000000     0.240170000000    -0.00594838 
C464     C      0.062130000000     0.296010000000     0.261410000000    -0.0943215  
C465     C      0.977350000000     0.235350000000     0.209880000000    -0.0103429  
C466     C      0.939320000000     0.198910000000     0.186590000000    -0.0976054  
C467     C      0.983950000000     0.253240000000     0.236180000000    -0.032994   
C468     C      0.915830000000     0.188540000000     0.172190000000     0.0742928  
C469     C      0.918660000000     0.227620000000     0.169670000000     0.105561   
C470     C      0.007330000000     0.264390000000     0.251170000000    -0.0375525  
C471     C      0.050010000000     0.270730000000     0.254990000000     0.0493423  
C472     C      0.952650000000     0.224010000000     0.193400000000     0.0562212  
C473     C      0.275480000000     0.403610000000     0.351270000000    -0.106984   
C474     C      0.420850000000     0.434690000000     0.437400000000     0.0741596  
C475     C      0.422120000000     0.472950000000     0.435970000000     0.0744117  
C476     C      0.396650000000     0.422800000000     0.425290000000    -0.0940566  
C477     C      0.351840000000     0.405210000000     0.378680000000    -0.0357546  
C478     C      0.328090000000     0.394000000000     0.364880000000    -0.0345059  
C479     C      0.359510000000     0.424100000000     0.403680000000    -0.00667364 
C480     C      0.397970000000     0.461660000000     0.423750000000    -0.0941723  
C481     C      0.311440000000     0.401460000000     0.375620000000    -0.00934472 
C482     C      0.272610000000     0.364290000000     0.356260000000    -0.0974111  
C483     C      0.319060000000     0.420300000000     0.400650000000    -0.0344292  
C484     C      0.248730000000     0.353420000000     0.343240000000     0.0744808  
C485     C      0.251500000000     0.392360000000     0.337960000000     0.105948   
C486     C      0.342780000000     0.431450000000     0.414550000000    -0.0357704  
C487     C      0.384950000000     0.436300000000     0.417920000000     0.0497584  
C488     C      0.286190000000     0.389630000000     0.360870000000     0.055925   
C489     C      0.529700000000     0.030550000000     0.805780000000    -0.10682    
C490     C      0.494790000000     0.978790000000     0.584130000000     0.0745298  
C491     C      0.528340000000     0.019120000000     0.577280000000     0.0744032  
C492     C      0.498320000000     0.980190000000     0.620490000000    -0.0949301  
C493     C      0.522470000000     0.987320000000     0.694270000000    -0.0366068  
C494     C      0.523740000000     0.989050000000     0.730940000000    -0.0339779  
C495     C      0.519300000000     0.004260000000     0.674260000000    -0.00703007 
C496     C      0.531970000000     0.021350000000     0.613640000000    -0.0952955  
C497     C      0.521240000000     0.007410000000     0.748510000000    -0.0093999  
C498     C      0.511230000000     0.986760000000     0.807730000000    -0.09713    
C499     C      0.518260000000     0.024460000000     0.728130000000    -0.0339018  
C500     C      0.510100000000     0.987720000000     0.844240000000     0.0754416  
C501     C      0.527950000000     0.031020000000     0.842510000000     0.107068   
C502     C      0.517560000000     0.023040000000     0.691450000000    -0.0363947  
C503     C      0.516750000000     0.001800000000     0.635610000000     0.0503349  
C504     C      0.520860000000     0.008280000000     0.787790000000     0.0554506  
C505     C      0.501350000000     0.017080000000     0.310060000000    -0.0911993  
C506     C      0.491230000000     0.983690000000     0.084240000000     0.0749574  
C507     C      0.486050000000     0.018470000000     0.080850000000     0.0748036  
C508     C      0.489420000000     0.983500000000     0.120810000000    -0.0951915  
C509     C      0.465050000000     0.001570000000     0.193840000000    -0.0353473  
C510     C      0.463890000000     0.001190000000     0.230590000000    -0.0364176  
C511     C      0.484840000000     0.001680000000     0.176620000000    -0.00793336 
C512     C      0.483640000000     0.018480000000     0.117400000000    -0.0947721  
C513     C      0.482800000000     0.001490000000     0.250670000000    -0.00630134 
C514     C      0.460330000000     0.981430000000     0.306300000000    -0.0937645  
C515     C      0.502840000000     0.002150000000     0.233400000000    -0.0362047  
C516     C      0.459810000000     0.979120000000     0.343040000000     0.0773198  
C517     C      0.499390000000     0.014100000000     0.346340000000     0.0644433  
C518     C      0.503730000000     0.002000000000     0.196720000000    -0.0353294  
C519     C      0.485770000000     0.001130000000     0.137770000000     0.0507265  
C520     C      0.481350000000     0.000270000000     0.289520000000     0.0469398  
C521     C      0.611620000000     0.076420000000     0.004140000000    -0.107478   
C522     C      0.754400000000     0.108230000000     0.100190000000     0.0743689  
C523     C      0.754770000000     0.146050000000     0.098700000000     0.0745518  
C524     C      0.730510000000     0.096030000000     0.086910000000    -0.0941155  
C525     C      0.686420000000     0.077650000000     0.038700000000    -0.0357632  
C526     C      0.663030000000     0.066310000000     0.023630000000    -0.0346678  
C527     C      0.693410000000     0.096670000000     0.063360000000    -0.0066968  
C528     C      0.730970000000     0.134470000000     0.085170000000    -0.0939627  
C529     C      0.646150000000     0.073850000000     0.032620000000    -0.00954682 
C530     C      0.607420000000     0.036760000000     0.012800000000    -0.0975694  
C531     C      0.653040000000     0.092740000000     0.057360000000    -0.0345981  
C532     C      0.583780000000     0.026090000000     0.998860000000     0.0742131  
C533     C      0.587960000000     0.065370000000     0.989760000000     0.106486   
C534     C      0.676330000000     0.103940000000     0.072640000000    -0.0358308  
C535     C      0.718530000000     0.109160000000     0.078830000000     0.0497306  
C536     C      0.621420000000     0.062160000000     0.016290000000     0.0559987  
C537     C      0.197890000000     0.831990000000     0.640750000000    -0.106894   
C538     C      0.162110000000     0.843990000000     0.417340000000     0.0748524  
C539     C      0.195870000000     0.837200000000     0.412980000000     0.0750522  
C540     C      0.165230000000     0.846840000000     0.453740000000    -0.0949975  
C541     C      0.188950000000     0.865260000000     0.527750000000    -0.036566   
C542     C      0.190540000000     0.865630000000     0.564440000000    -0.0340063  
C543     C      0.185820000000     0.844800000000     0.508800000000    -0.00698841 
C544     C      0.199120000000     0.839350000000     0.449360000000    -0.0952914  
C545     C      0.188430000000     0.845260000000     0.583020000000    -0.00936874 
C546     C      0.179010000000     0.857030000000     0.641780000000    -0.0973441  
C547     C      0.185300000000     0.824800000000     0.563690000000    -0.0338845  
C548     C      0.178080000000     0.855420000000     0.678330000000     0.0757833  
C549     C      0.196310000000     0.830230000000     0.677510000000     0.107288   
C550     C      0.184280000000     0.824710000000     0.527020000000    -0.0362496  
C551     C      0.183590000000     0.844020000000     0.470100000000     0.0506498  
C552     C      0.188620000000     0.844920000000     0.622300000000     0.0557535  
C553     C      0.149850000000     0.833260000000     0.956000000000    -0.106712   
C554     C      0.168640000000     0.808370000000     0.175210000000     0.0745983  
C555     C      0.129910000000     0.805770000000     0.180820000000     0.0743033  
C556     C      0.165970000000     0.806210000000     0.138770000000    -0.0940985  
C557     C      0.152680000000     0.792310000000     0.062780000000    -0.0359975  
C558     C      0.152860000000     0.794120000000     0.026160000000    -0.034135   
C559     C      0.142750000000     0.803650000000     0.083700000000    -0.00645974 
C560     C      0.126520000000     0.803310000000     0.144410000000    -0.0940247  
C561     C      0.142850000000     0.807090000000     0.009400000000    -0.00919275 
C562     C      0.143610000000     0.792770000000     0.947930000000    -0.0973788  
C563     C      0.131920000000     0.817470000000     0.030250000000    -0.0343262  
C564     C      0.147670000000     0.797440000000     0.912000000000     0.0744717  
C565     C      0.153670000000     0.837530000000     0.919770000000     0.105825   
C566     C      0.131990000000     0.815910000000     0.066890000000    -0.035764   
C567     C      0.144880000000     0.803980000000     0.122750000000     0.0496768  
C568     C      0.145060000000     0.810890000000     0.970590000000     0.0555761  
C569     C      0.395540000000     0.969470000000     0.920600000000    -0.107108   
C570     C      0.251750000000     0.855370000000     0.830950000000     0.0746772  
C571     C      0.249630000000     0.891900000000     0.833380000000     0.0748415  
C572     C      0.275700000000     0.867710000000     0.843940000000    -0.093987   
C573     C      0.319660000000     0.894660000000     0.892180000000    -0.0358985  
C574     C      0.343270000000     0.907200000000     0.906480000000    -0.0343268  
C575     C      0.312100000000     0.905960000000     0.867080000000    -0.00647414 
C576     C      0.273560000000     0.904800000000     0.846430000000    -0.0938686  
C577     C      0.359870000000     0.931360000000     0.896100000000    -0.00944593 
C578     C      0.398620000000     0.933090000000     0.916660000000    -0.0974266  
C579     C      0.352340000000     0.942640000000     0.870940000000    -0.0343195  
C580     C      0.422450000000     0.946190000000     0.929870000000     0.0741762  
C581     C      0.419460000000     0.982290000000     0.934070000000     0.106333   
C582     C      0.328750000000     0.930090000000     0.856600000000    -0.0359573  
C583     C      0.286870000000     0.892690000000     0.852170000000     0.0499311  
C584     C      0.384990000000     0.944780000000     0.911310000000     0.0558887  
C585     C      0.836980000000     0.656660000000     0.800610000000    -0.106747   
C586     C      0.798780000000     0.645130000000     0.023290000000     0.0746612  
C587     C      0.832080000000     0.685890000000     0.022240000000     0.0751949  
C588     C      0.797270000000     0.644900000000     0.986640000000    -0.0943105  
C589     C      0.792760000000     0.651590000000     0.908410000000    -0.0360907  
C590     C      0.793750000000     0.649790000000     0.871850000000    -0.0342284  
C591     C      0.814420000000     0.664720000000     0.928160000000    -0.00651909 
C592     C      0.830850000000     0.686420000000     0.985670000000    -0.0946156  
C593     C      0.816390000000     0.661150000000     0.854200000000    -0.00947241 
C594     C      0.800860000000     0.660180000000     0.792970000000    -0.097628   
C595     C      0.837950000000     0.674760000000     0.873900000000    -0.0340362  
C596     C      0.803530000000     0.659580000000     0.756610000000     0.0787609  
C597     C      0.839330000000     0.656300000000     0.764110000000     0.106231   
C598     C      0.837000000000     0.676370000000     0.910340000000    -0.0359309  
C599     C      0.813820000000     0.665510000000     0.967250000000     0.0500216  
C600     C      0.817760000000     0.658810000000     0.815480000000     0.056149   
C601     C      0.845420000000     0.684190000000     0.482280000000    -0.10812    
C602     C      0.860230000000     0.674230000000     0.257800000000     0.0750704  
C603     C      0.821300000000     0.638260000000     0.262180000000     0.0749565  
C604     C      0.863120000000     0.674780000000     0.294240000000    -0.0953261  
C605     C      0.866650000000     0.662130000000     0.371890000000    -0.0362338  
C606     C      0.868040000000     0.664490000000     0.408520000000    -0.0345754  
C607     C      0.845800000000     0.659060000000     0.353870000000    -0.00736455 
C608     C      0.823400000000     0.638520000000     0.298720000000    -0.095414   
C609     C      0.848830000000     0.664360000000     0.427500000000    -0.0101569  
C610     C      0.854560000000     0.651560000000     0.487220000000    -0.0986056  
C611     C      0.828060000000     0.661380000000     0.409420000000    -0.0344581  
C612     C      0.853090000000     0.652630000000     0.523680000000     0.0751815  
C613     C      0.844380000000     0.685240000000     0.518970000000     0.106274   
C614     C      0.826480000000     0.658570000000     0.372980000000    -0.0359017  
C615     C      0.844310000000     0.657140000000     0.315110000000     0.0508223  
C616     C      0.850090000000     0.667020000000     0.466170000000     0.0568206  
C617     C      0.727160000000     0.625190000000     0.596600000000    -0.10738    
C618     C      0.584780000000     0.513690000000     0.501270000000     0.0744382  
C619     C      0.584950000000     0.551430000000     0.501970000000     0.0750055  
C620     C      0.608450000000     0.525030000000     0.515440000000    -0.094151   
C621     C      0.663510000000     0.557640000000     0.529480000000    -0.0360955  
C622     C      0.686740000000     0.569740000000     0.545110000000    -0.0342562  
C623     C      0.644920000000     0.562240000000     0.540800000000    -0.00672987 
C624     C      0.608510000000     0.563290000000     0.516270000000    -0.0946952  
C625     C      0.691850000000     0.586640000000     0.572510000000    -0.00960085 
C626     C      0.730600000000     0.588950000000     0.594570000000    -0.0974833  
C627     C      0.673050000000     0.590800000000     0.584260000000    -0.0343196  
C628     C      0.754280000000     0.602390000000     0.608240000000     0.0739553  
C629     C      0.750920000000     0.638340000000     0.610490000000     0.105534   
C630     C      0.649910000000     0.578800000000     0.568570000000    -0.0360809  
C631     C      0.620410000000     0.550030000000     0.523720000000     0.0501466  
C632     C      0.716830000000     0.600380000000     0.588140000000     0.0556844  
C633     C      0.933970000000     0.714940000000     0.714100000000    -0.107127   
C634     C      0.088790000000     0.768830000000     0.763670000000     0.0744284  
C635     C      0.088220000000     0.806140000000     0.759290000000     0.07437    
C636     C      0.064710000000     0.755750000000     0.751230000000    -0.0948652  
C637     C      0.020770000000     0.762580000000     0.697060000000    -0.0374348  
C638     C      0.996700000000     0.750220000000     0.684380000000    -0.033022   
C639     C      0.026960000000     0.754790000000     0.728090000000    -0.00646491 
C640     C      0.064310000000     0.793680000000     0.746140000000    -0.0948931  
C641     C      0.978330000000     0.730160000000     0.702890000000    -0.0106056  
C642     C      0.946260000000     0.709840000000     0.656200000000    -0.097989   
C643     C      0.984550000000     0.722270000000     0.733790000000    -0.0331623  
C644     C      0.921760000000     0.698610000000     0.645560000000     0.0796269  
C645     C      0.909710000000     0.704360000000     0.702400000000     0.106673   
C646     C      0.008700000000     0.734330000000     0.746100000000    -0.0375926  
C647     C      0.052320000000     0.768230000000     0.741960000000     0.0500374  
C648     C      0.952530000000     0.718140000000     0.690820000000     0.0571182  
H1       H      0.763390000000     0.087620000000     0.667140000000     0.0254512  
H2       H      0.731100000000     0.896760000000     0.772140000000     0.025949   
H3       H      0.741850000000     0.025500000000     0.744640000000     0.0378982  
H4       H      0.754330000000     0.959600000000     0.695270000000     0.0371884  
H5       H      0.753140000000     0.937610000000     0.748610000000     0.0534141  
H6       H      0.775700000000     0.000420000000     0.669080000000     0.0376845  
H7       H      0.688510000000     0.944040000000     0.758110000000     0.0576723  
H8       H      0.741740000000     0.046270000000     0.690160000000     0.0529182  
H9       H      0.808170000000     0.042460000000     0.682720000000     0.0527118  
H10      H      0.720660000000     0.984820000000     0.770980000000     0.0372655  
H11      H      0.829300000000     0.083820000000     0.659290000000     0.0253903  
H12      H      0.638970000000     0.888550000000     0.763470000000     0.0401025  
H13      H      0.905030000000     0.229650000000     0.603310000000     0.0254215  
H14      H      0.934080000000     0.421000000000     0.506020000000     0.0259584  
H15      H      0.928670000000     0.294690000000     0.530190000000     0.0377192  
H16      H      0.911880000000     0.357360000000     0.581200000000     0.0371112  
H17      H      0.913150000000     0.379670000000     0.527770000000     0.053383   
H18      H      0.890930000000     0.315840000000     0.604950000000     0.0375377  
H19      H      0.980260000000     0.377510000000     0.522730000000     0.0580676  
H20      H      0.926860000000     0.271620000000     0.582560000000     0.052855   
H21      H      0.859860000000     0.274490000000     0.588650000000     0.0525949  
H22      H      0.949610000000     0.336200000000     0.506480000000     0.0375439  
H23      H      0.838660000000     0.232660000000     0.609950000000     0.02539    
H24      H      0.027770000000     0.434500000000     0.522670000000     0.0395042  
H25      H      0.068970000000     0.567650000000     0.446130000000     0.0254942  
H26      H      0.095160000000     0.753390000000     0.330700000000     0.0262461  
H27      H      0.100180000000     0.649800000000     0.435110000000     0.0373233  
H28      H      0.058280000000     0.668770000000     0.339920000000     0.0371075  
H29      H      0.073400000000     0.712970000000     0.355800000000     0.0536317  
H30      H      0.037630000000     0.628230000000     0.367090000000     0.0374418  
H31      H      0.138020000000     0.706590000000     0.347280000000     0.0579954  
H32      H      0.088590000000     0.608640000000     0.422470000000     0.0524261  
H33      H      0.018500000000     0.605520000000     0.419390000000     0.0521608  
H34      H      0.120940000000     0.689990000000     0.407270000000     0.037786   
H35      H      0.999210000000     0.563970000000     0.442100000000     0.0259542  
H36      H      0.171990000000     0.743710000000     0.281900000000     0.0381425  
H37      H      0.661450000000     0.755410000000     0.842440000000     0.025168   
H38      H      0.498630000000     0.563570000000     0.936620000000     0.0260388  
H39      H      0.613940000000     0.672080000000     0.849660000000     0.0373217  
H40      H      0.545490000000     0.647920000000     0.933900000000     0.0370483  
H41      H      0.518660000000     0.604930000000     0.914590000000     0.0535437  
H42      H      0.566230000000     0.689340000000     0.909810000000     0.0374843  
H43      H      0.588850000000     0.610890000000     0.932260000000     0.0577982  
H44      H      0.640990000000     0.713960000000     0.865200000000     0.052308   
H45      H      0.571580000000     0.711910000000     0.856780000000     0.0526503  
H46      H      0.593420000000     0.630830000000     0.874260000000     0.0376617  
H47      H      0.592660000000     0.753590000000     0.835090000000     0.0257858  
H48      H      0.580870000000     0.571960000000     0.997900000000     0.0359249  
H49      H      0.165160000000     0.896140000000     0.269640000000     0.0253675  
H50      H      0.321170000000     0.086860000000     0.162170000000     0.0262901  
H51      H      0.212730000000     0.979150000000     0.261090000000     0.0373632  
H52      H      0.275220000000     0.002410000000     0.167300000000     0.03733    
H53      H      0.302990000000     0.045930000000     0.185260000000     0.0537466  
H54      H      0.256300000000     0.961290000000     0.192380000000     0.0375833  
H55      H      0.231600000000     0.038670000000     0.177290000000     0.0579667  
H56      H      0.184710000000     0.937530000000     0.247100000000     0.0524048  
H57      H      0.253800000000     0.938560000000     0.244150000000     0.0525964  
H58      H      0.231320000000     0.020020000000     0.235410000000     0.0378734  
H59      H      0.233470000000     0.896760000000     0.265700000000     0.0254546  
H60      H      0.234460000000     0.077050000000     0.114030000000     0.0382604  
H61      H      0.423970000000     0.419840000000     0.996440000000     0.0252967  
H62      H      0.391010000000     0.228340000000     0.099840000000     0.025978   
H63      H      0.388350000000     0.336220000000     0.002050000000     0.0374008  
H64      H      0.428590000000     0.312340000000     0.093740000000     0.0368877  
H65      H      0.413290000000     0.269350000000     0.076830000000     0.0534199  
H66      H      0.450340000000     0.353600000000     0.069200000000     0.0371652  
H67      H      0.348360000000     0.275390000000     0.083540000000     0.0578754  
H68      H      0.402190000000     0.378100000000     0.017920000000     0.0523942  
H69      H      0.469770000000     0.376140000000     0.016400000000     0.0521582  
H70      H      0.366540000000     0.295060000000     0.026890000000     0.0376643  
H71      H      0.491140000000     0.418130000000     0.995760000000     0.0240286  
H72      H      0.313940000000     0.237220000000     0.147590000000     0.0377333  
H73      H      0.619380000000     0.801700000000     0.703260000000     0.0249039  
H74      H      0.693960000000     0.833770000000     0.414690000000     0.0246602  
H75      H      0.630040000000     0.818920000000     0.589570000000     0.0374482  
H76      H      0.680090000000     0.790730000000     0.525440000000     0.0376999  
H77      H      0.694270000000     0.829680000000     0.477970000000     0.0545946  
H78      H      0.679310000000     0.789500000000     0.589660000000     0.0368973  
H79      H      0.616280000000     0.781940000000     0.477220000000     0.0588309  
H80      H      0.617140000000     0.796180000000     0.640320000000     0.0522644  
H81      H      0.692730000000     0.813260000000     0.639810000000     0.0521613  
H82      H      0.629790000000     0.818500000000     0.525710000000     0.0388106  
H83      H      0.693710000000     0.816990000000     0.703010000000     0.0250889  
H84      H      0.598530000000     0.757470000000     0.396400000000     0.0393546  
H85      H      0.690300000000     0.870800000000     0.207540000000     0.0253646  
H86      H      0.696150000000     0.833180000000     0.916010000000     0.0254929  
H87      H      0.668610000000     0.880090000000     0.091180000000     0.0377803  
H88      H      0.662890000000     0.809780000000     0.024160000000     0.0380831  
H89      H      0.696600000000     0.835800000000     0.979200000000     0.0543111  
H90      H      0.659130000000     0.807280000000     0.088060000000     0.0384298  
H91      H      0.643520000000     0.859720000000     0.974870000000     0.0585625  
H92      H      0.693310000000     0.876210000000     0.144050000000     0.0533473  
H93      H      0.627530000000     0.806190000000     0.132180000000     0.0534184  
H94      H      0.672290000000     0.882570000000     0.026850000000     0.0371607  
H95      H      0.624800000000     0.801370000000     0.195440000000     0.0253199  
H96      H      0.651920000000     0.887410000000     0.895530000000     0.0380653  
H97      H      0.822210000000     0.728550000000     0.174400000000     0.0253848  
H98      H      0.658280000000     0.753780000000     0.274350000000     0.025799   
H99      H      0.778250000000     0.743960000000     0.256180000000     0.0380433  
H100     H      0.700410000000     0.730600000000     0.203390000000     0.0369136  
H101     H      0.677730000000     0.731640000000     0.253280000000     0.0530181  
H102     H      0.721500000000     0.710680000000     0.177550000000     0.0377892  
H103     H      0.748440000000     0.794940000000     0.271520000000     0.0577646  
H104     H      0.800260000000     0.747750000000     0.198570000000     0.0532429  
H105     H      0.733000000000     0.678400000000     0.193790000000     0.0527861  
H106     H      0.756920000000     0.763280000000     0.282780000000     0.0365623  
H107     H      0.755450000000     0.659600000000     0.169780000000     0.0251114  
H108     H      0.740930000000     0.825970000000     0.337530000000     0.0369814  
H109     H      0.561760000000     0.990500000000     0.429480000000     0.0240583  
H110     H      0.587420000000     0.825450000000     0.336620000000     0.0260267  
H111     H      0.594500000000     0.939910000000     0.428740000000     0.0376038  
H112     H      0.549720000000     0.872260000000     0.343570000000     0.0369784  
H113     H      0.565700000000     0.844980000000     0.359550000000     0.0535504  
H114     H      0.529530000000     0.893490000000     0.368050000000     0.0375589  
H115     H      0.630330000000     0.915440000000     0.346780000000     0.0580764  
H116     H      0.581210000000     0.968010000000     0.408880000000     0.0523129  
H117     H      0.512980000000     0.900320000000     0.422360000000     0.0526301  
H118     H      0.614650000000     0.918770000000     0.404220000000     0.0379687  
H119     H      0.493860000000     0.923440000000     0.442350000000     0.0253574  
H120     H      0.661880000000     0.908910000000     0.280710000000     0.0372222  
H121     H      0.967210000000     0.503000000000     0.576230000000     0.025343   
H122     H      0.033940000000     0.531350000000     0.871760000000     0.024438   
H123     H      0.969410000000     0.478760000000     0.689720000000     0.0384243  
H124     H      0.031400000000     0.550730000000     0.756620000000     0.0366553  
H125     H      0.036750000000     0.534930000000     0.808720000000     0.0530561  
H126     H      0.034190000000     0.550250000000     0.692580000000     0.0380127  
H127     H      0.957950000000     0.494300000000     0.801750000000     0.0576203  
H128     H      0.966280000000     0.507060000000     0.639480000000     0.0535362  
H129     H      0.040470000000     0.520870000000     0.645860000000     0.0533366  
H130     H      0.967240000000     0.478310000000     0.753490000000     0.0371211  
H131     H      0.040770000000     0.516160000000     0.582350000000     0.0249673  
H132     H      0.934810000000     0.460880000000     0.875170000000     0.0407861  
H133     H      0.959460000000     0.467350000000     0.368530000000     0.0251142  
H134     H      0.034240000000     0.504610000000     0.079640000000     0.0249472  
H135     H      0.970200000000     0.486400000000     0.255790000000     0.0374415  
H136     H      0.023430000000     0.462790000000     0.190380000000     0.0378913  
H137     H      0.035300000000     0.500180000000     0.142750000000     0.0545376  
H138     H      0.023000000000     0.461350000000     0.254640000000     0.0370472  
H139     H      0.957520000000     0.451220000000     0.143280000000     0.0588614  
H140     H      0.958060000000     0.462660000000     0.305570000000     0.0523798  
H141     H      0.034940000000     0.484410000000     0.305900000000     0.0522522  
H142     H      0.969720000000     0.486280000000     0.191990000000     0.0381942  
H143     H      0.035160000000     0.487320000000     0.369340000000     0.025235   
H144     H      0.934820000000     0.465310000000     0.073210000000     0.0395405  
H145     H      0.833330000000     0.592360000000     0.112250000000     0.0252425  
H146     H      0.994140000000     0.564580000000     0.005200000000     0.0264826  
H147     H      0.874350000000     0.573350000000     0.030920000000     0.0379275  
H148     H      0.955240000000     0.591260000000     0.077710000000     0.037154   
H149     H      0.975360000000     0.587390000000     0.026080000000     0.0534738  
H150     H      0.934830000000     0.612140000000     0.102730000000     0.0378353  
H151     H      0.904600000000     0.522290000000     0.021150000000     0.0575481  
H152     H      0.854880000000     0.572650000000     0.088600000000     0.052981   
H153     H      0.921610000000     0.642570000000     0.085910000000     0.0530037  
H154     H      0.894880000000     0.552900000000     0.005360000000     0.0369008  
H155     H      0.899560000000     0.661860000000     0.109680000000     0.0252825  
H156     H      0.907570000000     0.485030000000     0.960850000000     0.0389971  
H157     H      0.286740000000     0.145790000000     0.020230000000     0.0256575  
H158     H      0.307180000000     0.118220000000     0.730900000000     0.0257265  
H159     H      0.321480000000     0.175560000000     0.913330000000     0.0386884  
H160     H      0.332570000000     0.113600000000     0.847730000000     0.0375     
H161     H      0.304650000000     0.112470000000     0.793800000000     0.0542171  
H162     H      0.327430000000     0.110120000000     0.911910000000     0.0379578  
H163     H      0.363080000000     0.186440000000     0.807550000000     0.0586438  
H164     H      0.288550000000     0.144030000000     0.956670000000     0.0536     
H165     H      0.353480000000     0.137750000000     0.965520000000     0.0534606  
H166     H      0.326940000000     0.179210000000     0.849620000000     0.037959   
H167     H      0.351490000000     0.139940000000     0.029130000000     0.0251037  
H168     H      0.364720000000     0.218920000000     0.737470000000     0.0384223  
H169     H      0.358310000000     0.171750000000     0.240010000000     0.0253309  
H170     H      0.295510000000     0.137870000000     0.523280000000     0.0256007  
H171     H      0.362430000000     0.203240000000     0.349850000000     0.0372158  
H172     H      0.282700000000     0.155420000000     0.411080000000     0.0369201  
H173     H      0.294160000000     0.139810000000     0.460310000000     0.0536189  
H174     H      0.283990000000     0.154550000000     0.347200000000     0.0376506  
H175     H      0.347930000000     0.216520000000     0.463520000000     0.0577881  
H176     H      0.358040000000     0.176080000000     0.303100000000     0.052678   
H177     H      0.290700000000     0.178200000000     0.294790000000     0.0525647  
H178     H      0.361320000000     0.203010000000     0.413750000000     0.0369472  
H179     H      0.291130000000     0.173100000000     0.231750000000     0.0254221  
H180     H      0.378970000000     0.229610000000     0.539380000000     0.039802   
H181     H      0.400740000000     0.164400000000     0.598980000000     0.0253661  
H182     H      0.427260000000     0.001570000000     0.496770000000     0.0264418  
H183     H      0.421470000000     0.122890000000     0.519870000000     0.0378681  
H184     H      0.406830000000     0.044130000000     0.570760000000     0.0371483  
H185     H      0.406680000000     0.022150000000     0.519160000000     0.0535439  
H186     H      0.386580000000     0.064880000000     0.596420000000     0.0378057  
H187     H      0.472260000000     0.091650000000     0.504830000000     0.0573695  
H188     H      0.422060000000     0.144150000000     0.575990000000     0.0529038  
H189     H      0.354400000000     0.075060000000     0.579120000000     0.0530928  
H190     H      0.441350000000     0.101950000000     0.493620000000     0.037075   
H191     H      0.333610000000     0.095730000000     0.602100000000     0.0252447  
H192     H      0.520380000000     0.083340000000     0.501790000000     0.0383805  
H193     H      0.996850000000     0.425160000000     0.938930000000     0.0265698  
H194     H      0.157580000000     0.393640000000     0.842140000000     0.0257833  
H195     H      0.044390000000     0.388790000000     0.935090000000     0.0377215  
H196     H      0.112520000000     0.432730000000     0.850300000000     0.0371096  
H197     H      0.138760000000     0.415680000000     0.866090000000     0.0535403  
H198     H      0.092510000000     0.453830000000     0.875710000000     0.037599   
H199     H      0.067620000000     0.352200000000     0.852080000000     0.0582174  
H200     H      0.017530000000     0.404150000000     0.916960000000     0.0527751  
H201     H      0.087130000000     0.470290000000     0.930910000000     0.0524801  
H202     H      0.064350000000     0.367700000000     0.909620000000     0.0372909  
H203     H      0.065850000000     0.490960000000     0.952190000000     0.0250577  
H204     H      0.072840000000     0.301980000000     0.846160000000     0.0394434  
H205     H      0.259470000000     0.166060000000     0.662400000000     0.0254308  
H206     H      0.227650000000     0.323180000000     0.773800000000     0.026121   
H207     H      0.223570000000     0.213380000000     0.674150000000     0.0374574  
H208     H      0.265780000000     0.276880000000     0.765820000000     0.0371506  
H209     H      0.249580000000     0.304500000000     0.749290000000     0.0537675  
H210     H      0.287150000000     0.257700000000     0.738710000000     0.0372334  
H211     H      0.185800000000     0.233410000000     0.761170000000     0.0580957  
H212     H      0.238040000000     0.185590000000     0.686820000000     0.0526177  
H213     H      0.305420000000     0.255090000000     0.684780000000     0.0524589  
H214     H      0.202130000000     0.232270000000     0.701800000000     0.0373446  
H215     H      0.326500000000     0.234840000000     0.661350000000     0.0250518  
H216     H      0.135930000000     0.239230000000     0.765770000000     0.0388987  
H217     H      0.453900000000     0.474930000000     0.864260000000     0.0251028  
H218     H      0.481210000000     0.448600000000     0.570480000000     0.0257636  
H219     H      0.523870000000     0.509370000000     0.752530000000     0.0384714  
H220     H      0.452130000000     0.446520000000     0.685920000000     0.0373767  
H221     H      0.478570000000     0.444180000000     0.633590000000     0.0541541  
H222     H      0.452520000000     0.444160000000     0.750300000000     0.0378158  
H223     H      0.495890000000     0.519000000000     0.644110000000     0.0584766  
H224     H      0.452260000000     0.472090000000     0.800620000000     0.0532477  
H225     H      0.524300000000     0.479870000000     0.799950000000     0.0533351  
H226     H      0.523350000000     0.511860000000     0.688430000000     0.0383447  
H227     H      0.525340000000     0.482310000000     0.863720000000     0.0252937  
H228     H      0.480630000000     0.536140000000     0.568890000000     0.0387113  
H229     H      0.511820000000     0.463760000000     0.360600000000     0.0251627  
H230     H      0.468270000000     0.504760000000     0.084630000000     0.0213471  
H231     H      0.552900000000     0.535770000000     0.247170000000     0.037595   
H232     H      0.478480000000     0.470420000000     0.188420000000     0.038692   
H233     H      0.475690000000     0.505590000000     0.148560000000     0.0534996  
H234     H      0.482890000000     0.469050000000     0.252170000000     0.0383212  
H235     H      0.542520000000     0.503720000000     0.127360000000     0.0500327  
H236     H      0.513610000000     0.465220000000     0.296790000000     0.0532146  
H237     H      0.525970000000     0.538970000000     0.299670000000     0.0534622  
H238     H      0.548700000000     0.536780000000     0.182990000000     0.037786   
H239     H      0.523550000000     0.536850000000     0.363420000000     0.0252522  
H240     H      0.555020000000     0.496740000000     0.043810000000    -5.63572e-05
H241     H      0.812670000000     0.173730000000     0.744050000000     0.0253336  
H242     H      0.842750000000     0.140190000000     0.027370000000     0.0255579  
H243     H      0.840290000000     0.205270000000     0.853830000000     0.0373696  
H244     H      0.872410000000     0.157450000000     0.915030000000     0.0369832  
H245     H      0.845760000000     0.142030000000     0.964390000000     0.0535476  
H246     H      0.869930000000     0.156360000000     0.851200000000     0.0376095  
H247     H      0.868270000000     0.218710000000     0.967470000000     0.0579349  
H248     H      0.817500000000     0.178300000000     0.807110000000     0.0526549  
H249     H      0.886530000000     0.179550000000     0.798660000000     0.0527316  
H250     H      0.841430000000     0.205210000000     0.917720000000     0.0371197  
H251     H      0.880740000000     0.174170000000     0.735710000000     0.0254319  
H252     H      0.850590000000     0.231840000000     0.043590000000     0.0401204  
H253     H      0.787400000000     0.141950000000     0.532930000000     0.0252553  
H254     H      0.810170000000     0.120120000000     0.234680000000     0.0253894  
H255     H      0.853790000000     0.176040000000     0.418000000000     0.0385193  
H256     H      0.780250000000     0.116430000000     0.351190000000     0.0375214  
H257     H      0.806450000000     0.114140000000     0.297600000000     0.0543172  
H258     H      0.781250000000     0.112520000000     0.415390000000     0.0379439  
H259     H      0.825650000000     0.189260000000     0.311750000000     0.0585641  
H260     H      0.783500000000     0.140040000000     0.469260000000     0.0533192  
H261     H      0.853670000000     0.143920000000     0.461230000000     0.053386   
H262     H      0.852670000000     0.180100000000     0.354280000000     0.037789   
H263     H      0.856960000000     0.145450000000     0.524790000000     0.0253976  
H264     H      0.858650000000     0.220670000000     0.242180000000     0.0372691  
H265     H      0.181390000000     0.361070000000     0.698680000000     0.0254448  
H266     H      0.142990000000     0.352350000000     0.408120000000     0.0260448  
H267     H      0.123810000000     0.286420000000     0.592190000000     0.0372616  
H268     H      0.158320000000     0.363470000000     0.523380000000     0.0372192  
H269     H      0.135670000000     0.351750000000     0.470140000000     0.0533976  
H270     H      0.156720000000     0.365230000000     0.587040000000     0.0373551  
H271     H      0.153100000000     0.294280000000     0.483330000000     0.057835   
H272     H      0.177480000000     0.360570000000     0.635550000000     0.0528143  
H273     H      0.107190000000     0.294350000000     0.643250000000     0.0523733  
H274     H      0.123870000000     0.284520000000     0.528390000000     0.0366426  
H275     H      0.112150000000     0.294900000000     0.706460000000     0.0252288  
H276     H      0.143720000000     0.264730000000     0.406320000000     0.038649   
H277     H      0.135340000000     0.289820000000     0.918450000000     0.0252993  
H278     H      0.189200000000     0.307680000000     0.205740000000     0.0259027  
H279     H      0.143230000000     0.324400000000     0.026830000000     0.0384925  
H280     H      0.216670000000     0.332640000000     0.088100000000     0.0375053  
H281     H      0.190700000000     0.305110000000     0.142620000000     0.0541975  
H282     H      0.213410000000     0.327690000000     0.023920000000     0.0380216  
H283     H      0.177500000000     0.365430000000     0.132060000000     0.058707   
H284     H      0.139850000000     0.291200000000     0.981940000000     0.0534533  
H285     H      0.211720000000     0.354770000000     0.971910000000     0.053409   
H286     H      0.146650000000     0.329690000000     0.090610000000     0.0380461  
H287     H      0.206590000000     0.353240000000     0.908520000000     0.0251557  
H288     H      0.149940000000     0.369210000000     0.204490000000     0.0387724  
H289     H      0.094850000000     0.327560000000     0.278250000000     0.0249445  
H290     H      0.906230000000     0.168860000000     0.168260000000     0.0263476  
H291     H      0.011720000000     0.277970000000     0.271540000000     0.0375374  
H292     H      0.990160000000     0.215080000000     0.178830000000     0.037112   
H293     H      0.946720000000     0.187120000000     0.193180000000     0.053548   
H294     H      0.031070000000     0.234700000000     0.204770000000     0.037775   
H295     H      0.952540000000     0.258000000000     0.188320000000     0.0579939  
H296     H      0.053380000000     0.306730000000     0.255830000000     0.0522102  
H297     H      0.053680000000     0.238330000000     0.258180000000     0.0522811  
H298     H      0.970950000000     0.258510000000     0.245400000000     0.0367423  
H299     H      0.095490000000     0.259870000000     0.279940000000     0.0251318  
H300     H      0.896350000000     0.251200000000     0.185460000000     0.0376768  
H301     H      0.431550000000     0.492650000000     0.439600000000     0.0253682  
H302     H      0.239020000000     0.333620000000     0.340960000000     0.0266771  
H303     H      0.347910000000     0.445660000000     0.434150000000     0.0374899  
H304     H      0.322900000000     0.379760000000     0.345310000000     0.0371348  
H305     H      0.280160000000     0.352730000000     0.363440000000     0.0537438  
H306     H      0.364340000000     0.399350000000     0.369230000000     0.0374411  
H307     H      0.285960000000     0.423410000000     0.353600000000     0.0578479  
H308     H      0.389810000000     0.472900000000     0.418100000000     0.0525015  
H309     H      0.387190000000     0.403100000000     0.421820000000     0.0524313  
H310     H      0.306560000000     0.426220000000     0.409880000000     0.0378975  
H311     H      0.429200000000     0.423520000000     0.442460000000     0.0252238  
H312     H      0.246940000000     0.418730000000     0.290180000000     0.0387392  
H313     H      0.540360000000     0.034790000000     0.561200000000     0.0244803  
H314     H      0.501870000000     0.970360000000     0.858130000000     0.0248338  
H315     H      0.514850000000     0.036160000000     0.676500000000     0.0385729  
H316     H      0.526660000000     0.975910000000     0.745410000000     0.0364918  
H317     H      0.503810000000     0.968990000000     0.795330000000     0.0528947  
H318     H      0.524030000000     0.972780000000     0.681490000000     0.0383416  
H319     H      0.538340000000     0.047690000000     0.791410000000     0.0572179  
H320     H      0.546500000000     0.038300000000     0.624530000000     0.05323    
H321     H      0.486190000000     0.964720000000     0.636790000000     0.0535881  
H322     H      0.515760000000     0.038570000000     0.740410000000     0.0366221  
H323     H      0.479940000000     0.961910000000     0.573520000000     0.0250983  
H324     H      0.524600000000     0.067700000000     0.865360000000     0.0403076  
H325     H      0.484800000000     0.032530000000     0.066030000000     0.0258553  
H326     H      0.443990000000     0.964260000000     0.355800000000     0.0213939  
H327     H      0.519260000000     0.002240000000     0.184010000000     0.0382212  
H328     H      0.448280000000     0.000730000000     0.243350000000     0.0381767  
H329     H      0.444840000000     0.968180000000     0.291030000000     0.0531434  
H330     H      0.450240000000     0.001250000000     0.178860000000     0.038028   
H331     H      0.517820000000     0.031720000000     0.298230000000     0.0500867  
H332     H      0.480800000000     0.032390000000     0.129700000000     0.05354    
H333     H      0.490910000000     0.969640000000     0.135770000000     0.0535208  
H334     H      0.517550000000     0.002200000000     0.248300000000     0.0380153  
H335     H      0.494270000000     0.969810000000     0.072240000000     0.0253954  
H336     H      0.543930000000     0.049180000000     0.377580000000     0.000164504
H337     H      0.763750000000     0.165700000000     0.102720000000     0.0256663  
H338     H      0.573550000000     0.006240000000     0.997800000000     0.0259855  
H339     H      0.680850000000     0.118170000000     0.092000000000     0.0373845  
H340     H      0.658330000000     0.051970000000     0.004380000000     0.0372283  
H341     H      0.614390000000     0.025040000000     0.021770000000     0.0534371  
H342     H      0.699190000000     0.071820000000     0.030440000000     0.0373495  
H343     H      0.622560000000     0.096240000000     0.005320000000     0.058139   
H344     H      0.722640000000     0.145490000000     0.078950000000     0.0523858  
H345     H      0.721500000000     0.076380000000     0.083130000000     0.0522173  
H346     H      0.640280000000     0.098680000000     0.065230000000     0.037965   
H347     H      0.763000000000     0.097350000000     0.105770000000     0.0251038  
H348     H      0.585580000000     0.090140000000     0.937640000000     0.0385075  
H349     H      0.208160000000     0.833310000000     0.397920000000     0.0259348  
H350     H      0.169740000000     0.864600000000     0.691870000000     0.0248716  
H351     H      0.181610000000     0.808610000000     0.512890000000     0.0388147  
H352     H      0.193490000000     0.881950000000     0.578120000000     0.0364881  
H353     H      0.171360000000     0.867090000000     0.628990000000     0.0528596  
H354     H      0.190370000000     0.881040000000     0.514140000000     0.0383617  
H355     H      0.206620000000     0.823440000000     0.626700000000     0.0574883  
H356     H      0.213610000000     0.837220000000     0.461230000000     0.0537744  
H357     H      0.152870000000     0.850430000000     0.469120000000     0.0535652  
H358     H      0.183020000000     0.808530000000     0.576800000000     0.0368491  
H359     H      0.147320000000     0.845740000000     0.405690000000     0.0250359  
H360     H      0.193590000000     0.790720000000     0.701420000000     0.0405048  
H361     H      0.115430000000     0.805590000000     0.196480000000     0.0250289  
H362     H      0.146410000000     0.782650000000     0.895870000000     0.0256544  
H363     H      0.124330000000     0.825060000000     0.082000000000     0.037368   
H364     H      0.161630000000     0.786030000000     0.011120000000     0.0369156  
H365     H      0.139440000000     0.774960000000     0.957830000000     0.0529507  
H366     H      0.160710000000     0.782320000000     0.074690000000     0.0370831  
H367     H      0.151550000000     0.847870000000     0.972930000000     0.0577606  
H368     H      0.109660000000     0.801090000000     0.133380000000     0.0521114  
H369     H      0.180850000000     0.807170000000     0.123260000000     0.0524936  
H370     H      0.123600000000     0.827190000000     0.018320000000     0.0366278  
H371     H      0.185510000000     0.810550000000     0.186250000000     0.0253898  
H372     H      0.139660000000     0.867030000000     0.896820000000     0.0385453  
H373     H      0.239930000000     0.901950000000     0.829810000000     0.0259558  
H374     H      0.432270000000     0.936200000000     0.932590000000     0.0257941  
H375     H      0.323690000000     0.939220000000     0.836940000000     0.0376415  
H376     H      0.348370000000     0.898100000000     0.926140000000     0.0371795  
H377     H      0.391200000000     0.913970000000     0.909800000000     0.0532065  
H378     H      0.307190000000     0.876240000000     0.901280000000     0.0377163  
H379     H      0.384990000000     0.978740000000     0.917900000000     0.0577985  
H380     H      0.281340000000     0.924040000000     0.852730000000     0.0527717  
H381     H      0.285430000000     0.857690000000     0.847350000000     0.0525577  
H382     H      0.364810000000     0.961090000000     0.861940000000     0.0372708  
H383     H      0.243820000000     0.836020000000     0.825160000000     0.0257299  
H384     H      0.440980000000     0.028300000000     0.919580000000     0.0393396  
H385     H      0.845980000000     0.702280000000     0.035290000000     0.0251873  
H386     H      0.790330000000     0.660960000000     0.739790000000     0.0188417  
H387     H      0.854110000000     0.686340000000     0.924560000000     0.0374336  
H388     H      0.776790000000     0.639120000000     0.857500000000     0.0367962  
H389     H      0.786070000000     0.662440000000     0.803270000000     0.0535751  
H390     H      0.775030000000     0.642630000000     0.921170000000     0.0370021  
H391     H      0.850750000000     0.656250000000     0.817250000000     0.0554983  
H392     H      0.843540000000     0.703050000000     0.971940000000     0.0524975  
H393     H      0.783860000000     0.628260000000     0.973670000000     0.052358   
H394     H      0.855700000000     0.684230000000     0.861190000000     0.0362406  
H395     H      0.786090000000     0.628520000000     0.037140000000     0.0251021  
H396     H      0.880740000000     0.656130000000     0.770950000000     0.0314067  
H397     H      0.804600000000     0.623760000000     0.250570000000     0.0252438  
H398     H      0.856280000000     0.639860000000     0.538790000000     0.0254429  
H399     H      0.810310000000     0.656460000000     0.359640000000     0.0384734  
H400     H      0.884230000000     0.666770000000     0.421960000000     0.0375421  
H401     H      0.858290000000     0.638050000000     0.475560000000     0.0542679  
H402     H      0.881760000000     0.662540000000     0.357670000000     0.0379287  
H403     H      0.842120000000     0.696490000000     0.466180000000     0.0587068  
H404     H      0.808590000000     0.624420000000     0.314100000000     0.0533842  
H405     H      0.879540000000     0.689480000000     0.306080000000     0.0534367  
H406     H      0.812940000000     0.661010000000     0.423550000000     0.0380731  
H407     H      0.874940000000     0.688630000000     0.242620000000     0.0252044  
H408     H      0.811750000000     0.696030000000     0.538300000000     0.0397335  
H409     H      0.576360000000     0.562410000000     0.497130000000     0.0258867  
H410     H      0.764160000000     0.592540000000     0.612090000000     0.026204   
H411     H      0.635830000000     0.582370000000     0.578390000000     0.0378916  
H412     H      0.700870000000     0.566310000000     0.535130000000     0.0371197  
H413     H      0.723150000000     0.569630000000     0.589110000000     0.0533264  
H414     H      0.660290000000     0.545120000000     0.507970000000     0.037589   
H415     H      0.716860000000     0.634530000000     0.592010000000     0.0575374  
H416     H      0.617300000000     0.582760000000     0.521580000000     0.0529756  
H417     H      0.617000000000     0.514090000000     0.520840000000     0.0526633  
H418     H      0.676160000000     0.603280000000     0.605780000000     0.0366635  
H419     H      0.575950000000     0.494190000000     0.495990000000     0.0253501  
H420     H      0.754350000000     0.669880000000     0.656360000000     0.0372036  
H421     H      0.096830000000     0.825860000000     0.762040000000     0.0249457  
H422     H      0.917260000000     0.691990000000     0.618730000000     0.0167811  
H423     H      0.013000000000     0.728040000000     0.770150000000     0.0382346  
H424     H      0.992310000000     0.756720000000     0.660610000000     0.0380377  
H425     H      0.960150000000     0.711680000000     0.637680000000     0.0548617  
H426     H      0.034570000000     0.778210000000     0.682590000000     0.0384953  
H427     H      0.938370000000     0.720850000000     0.741200000000     0.0563564  
H428     H      0.055180000000     0.803910000000     0.739570000000     0.0530382  
H429     H      0.055990000000     0.736050000000     0.748300000000     0.0532886  
H430     H      0.970700000000     0.706780000000     0.748440000000     0.0373142  
H431     H      0.097840000000     0.758510000000     0.770130000000     0.0251095  
H432     H      0.895440000000     0.714250000000     0.762060000000     0.0325632  
N1       N      0.696790000000     0.896130000000     0.778890000000    -0.201959   
N2       N      0.798030000000     0.088930000000     0.661900000000    -0.198894   
N3       N      0.969580000000     0.423880000000     0.501610000000    -0.20181    
N4       N      0.870180000000     0.227940000000     0.607920000000    -0.198815   
N5       N      0.129700000000     0.754290000000     0.324920000000    -0.201552   
N6       N      0.032580000000     0.562640000000     0.445580000000    -0.198587   
N7       N      0.531790000000     0.562470000000     0.946550000000    -0.20182    
N8       N      0.628640000000     0.757690000000     0.837350000000    -0.198716   
N9       N      0.287300000000     0.087360000000     0.156790000000    -0.201494   
N10      N      0.197780000000     0.893260000000     0.269040000000    -0.198843   
N11      N      0.356350000000     0.227270000000     0.104390000000    -0.201787   
N12      N      0.459220000000     0.422210000000     0.994850000000    -0.19904    
N13      N      0.655010000000     0.810260000000     0.408850000000    -0.202816   
N14      N      0.656810000000     0.810160000000     0.707720000000    -0.199426   
N15      N      0.668900000000     0.843930000000     0.908270000000    -0.202819   
N16      N      0.657570000000     0.835530000000     0.206170000000    -0.199412   
N17      N      0.691750000000     0.787380000000     0.285270000000    -0.201884   
N18      N      0.790530000000     0.692600000000     0.170680000000    -0.199081   
N19      N      0.621830000000     0.858790000000     0.329470000000    -0.202311   
N20      N      0.526320000000     0.958680000000     0.437200000000    -0.199103   
N21      N      0.994670000000     0.509370000000     0.873400000000    -0.203101   
N22      N      0.003920000000     0.508890000000     0.574640000000    -0.199161   
N23      N      0.995330000000     0.480590000000     0.074440000000    -0.202166   
N24      N      0.997520000000     0.478160000000     0.373530000000    -0.198933   
N25      N      0.960580000000     0.530000000000     0.000640000000    -0.20185    
N26      N      0.864760000000     0.628610000000     0.112360000000    -0.199109   
N27      N      0.336220000000     0.155880000000     0.732070000000    -0.201854   
N28      N      0.319260000000     0.143510000000     0.029360000000    -0.199266   
N29      N      0.323270000000     0.175620000000     0.530460000000    -0.202393   
N30      N      0.324590000000     0.171770000000     0.231210000000    -0.199112   
N31      N      0.461980000000     0.034280000000     0.487650000000    -0.20196    
N32      N      0.365570000000     0.131630000000     0.601950000000    -0.199321   
N33      N      0.123850000000     0.359710000000     0.834090000000    -0.202343   
N34      N      0.029770000000     0.459670000000     0.946870000000    -0.198983   
N35      N      0.193500000000     0.289490000000     0.781130000000    -0.201917   
N36      N      0.294620000000     0.198920000000     0.660440000000    -0.199334   
N37      N      0.490520000000     0.486510000000     0.569970000000    -0.201708   
N38      N      0.489890000000     0.479210000000     0.868690000000    -0.198949   
N39      N      0.500850000000     0.504060000000     0.071500000000    -0.200879   
N40      N      0.517060000000     0.500010000000     0.366700000000    -0.198845   
N41      N      0.852540000000     0.177920000000     0.034490000000    -0.202399   
N42      N      0.846160000000     0.173270000000     0.735220000000    -0.199021   
N43      N      0.820500000000     0.158270000000     0.236150000000    -0.202093   
N44      N      0.822680000000     0.144360000000     0.533550000000    -0.198976   
N45      N      0.152260000000     0.323690000000     0.408930000000    -0.201989   
N46      N      0.147280000000     0.327810000000     0.707230000000    -0.199219   
N47      N      0.181800000000     0.337640000000     0.206250000000    -0.201956   
N48      N      0.170430000000     0.321680000000     0.908840000000    -0.199274   
N49      N      0.905080000000     0.202440000000     0.164410000000    -0.201284   
N50      N      0.098370000000     0.295330000000     0.280500000000    -0.198755   
N51      N      0.237790000000     0.367030000000     0.334690000000    -0.201089   
N52      N      0.433610000000     0.459630000000     0.442310000000    -0.198607   
N53      N      0.517550000000     0.009450000000     0.861670000000    -0.202631   
N54      N      0.509490000000     0.998230000000     0.562700000000    -0.198744   
N55      N      0.479540000000     0.995510000000     0.362070000000    -0.200149   
N56      N      0.490080000000     0.001350000000     0.064420000000    -0.198536   
N57      N      0.573590000000     0.040020000000     0.988320000000    -0.201532   
N58      N      0.766560000000     0.133100000000     0.105710000000    -0.198633   
N59      N      0.185670000000     0.841380000000     0.696210000000    -0.202727   
N60      N      0.177120000000     0.838900000000     0.397160000000    -0.198871   
N61      N      0.152980000000     0.819650000000     0.897650000000    -0.201568   
N62      N      0.151020000000     0.808750000000     0.196050000000    -0.198864   
N63      N      0.433280000000     0.970780000000     0.937770000000    -0.201429   
N64      N      0.238680000000     0.867300000000     0.826050000000    -0.198318   
N65      N      0.822200000000     0.657090000000     0.742480000000    -0.204207   
N66      N      0.816620000000     0.665170000000     0.040860000000    -0.199232   
N67      N      0.847600000000     0.668910000000     0.539770000000    -0.201989   
N68      N      0.839250000000     0.656410000000     0.241950000000    -0.199248   
N69      N      0.764860000000     0.627060000000     0.615430000000    -0.201552   
N70      N      0.572930000000     0.526700000000     0.495210000000    -0.198649   
N71      N      0.903940000000     0.696680000000     0.668120000000    -0.204283   
N72      N      0.100500000000     0.793860000000     0.767570000000    -0.198828   
Ni1      Ni     0.835120000000     0.643800000000     0.641480000000     0.999695   
Ni2      Ni     0.834520000000     0.681220000000     0.641580000000     1.00514    
Ni3      Ni     0.170610000000     0.812280000000     0.795950000000     0.998446   
Ni4      Ni     0.168510000000     0.848900000000     0.797780000000     1.00393    
Ni5      Ni     0.503100000000     0.986380000000     0.964310000000     0.999522   
Ni6      Ni     0.503810000000     0.024370000000     0.961700000000     1.0012     
Ni7      Ni     0.168310000000     0.312440000000     0.308070000000     0.999153   
Ni8      Ni     0.167450000000     0.349670000000     0.307580000000     1.00706    
Ni9      Ni     0.835890000000     0.148940000000     0.134250000000     0.997005   
Ni10     Ni     0.835480000000     0.186400000000     0.135840000000     1.00801    
Ni11     Ni     0.502970000000     0.474010000000     0.467970000000     0.996957   
Ni12     Ni     0.503880000000     0.512200000000     0.468160000000     1.00576    
Ni13     Ni     0.177410000000     0.343550000000     0.805990000000     1.00371    
Ni14     Ni     0.140110000000     0.305710000000     0.810100000000     1.00621    
Ni15     Ni     0.348880000000     0.184310000000     0.631840000000     1.00548    
Ni16     Ni     0.311430000000     0.146460000000     0.630120000000     1.00325    
Ni17     Ni     0.014460000000     0.513150000000     0.977110000000     0.994501   
Ni18     Ni     0.976240000000     0.476560000000     0.970360000000     1.01364    
Ni19     Ni     0.675600000000     0.841280000000     0.310760000000     1.00835    
Ni20     Ni     0.637540000000     0.804550000000     0.304000000000     1.00251    
Ni21     Ni     0.845950000000     0.680120000000     0.140110000000     1.00449    
Ni22     Ni     0.809500000000     0.641290000000     0.142800000000     1.00334    
Ni23     Ni     0.513030000000     0.014990000000     0.457920000000     1.01333    
Ni24     Ni     0.475160000000     0.977680000000     0.466570000000     0.998613   
Ni25     Ni     0.302730000000     0.156830000000     0.128280000000     1.00735    
Ni26     Ni     0.340810000000     0.157740000000     0.132450000000     0.999879   
Ni27     Ni     0.476450000000     0.492500000000     0.969660000000     1.0012     
Ni28     Ni     0.514130000000     0.491770000000     0.970790000000     1.0121     
Ni29     Ni     0.145250000000     0.824160000000     0.299310000000     0.99903    
Ni30     Ni     0.182560000000     0.823550000000     0.293950000000     1.00615    
Ni31     Ni     0.981460000000     0.491940000000     0.472300000000     1.00593    
Ni32     Ni     0.020620000000     0.495070000000     0.475910000000     0.999823   
Ni33     Ni     0.815700000000     0.159210000000     0.636530000000     1.00312    
Ni34     Ni     0.852530000000     0.157480000000     0.632490000000     1.00316    
Ni35     Ni     0.643640000000     0.826340000000     0.806850000000     1.00681    
Ni36     Ni     0.681770000000     0.827200000000     0.809090000000     1.00129    
O1       O      0.829370000000     0.642480000000     0.691310000000    -0.445297   
O2       O      0.841240000000     0.648090000000     0.592010000000    -0.450154   
O3       O      0.869620000000     0.662250000000     0.650040000000    -0.448676   
O4       O      0.800480000000     0.627690000000     0.632280000000    -0.448893   
O5       O      0.800810000000     0.662930000000     0.628040000000    -0.448485   
O6       O      0.868430000000     0.696890000000     0.655750000000    -0.444221   
O7       O      0.843610000000     0.684400000000     0.592980000000    -0.448254   
O8       O      0.824900000000     0.675430000000     0.689790000000    -0.450466   
O9       O      0.179680000000     0.819370000000     0.747400000000    -0.447772   
O10      O      0.161450000000     0.807690000000     0.844620000000    -0.449452   
O11      O      0.136670000000     0.795410000000     0.782750000000    -0.449632   
O12      O      0.204390000000     0.831450000000     0.809340000000    -0.448948   
O13      O      0.202520000000     0.865790000000     0.810740000000    -0.448499   
O14      O      0.134700000000     0.829680000000     0.784600000000    -0.450439   
O15      O      0.159860000000     0.842030000000     0.846390000000    -0.449021   
O16      O      0.177220000000     0.853310000000     0.749060000000    -0.451639   
O17      O      0.510150000000     0.989750000000     0.915010000000    -0.450777   
O18      O      0.496120000000     0.985430000000     0.013460000000    -0.45029    
O19      O      0.468730000000     0.970760000000     0.953630000000    -0.449166   
O20      O      0.537530000000     0.004590000000     0.974810000000    -0.448567   
O21      O      0.537890000000     0.039930000000     0.973500000000    -0.447662   
O22      O      0.469670000000     0.006320000000     0.950070000000    -0.449063   
O23      O      0.495770000000     0.020520000000     0.010840000000    -0.447182   
O24      O      0.511900000000     0.025800000000     0.912790000000    -0.447695   
O25      O      0.160110000000     0.309710000000     0.356970000000    -0.448487   
O26      O      0.176480000000     0.317670000000     0.259140000000    -0.450698   
O27      O      0.202390000000     0.331280000000     0.320110000000    -0.448844   
O28      O      0.134130000000     0.296010000000     0.295950000000    -0.448753   
O29      O      0.133430000000     0.330960000000     0.295530000000    -0.451628   
O30      O      0.201580000000     0.366020000000     0.319650000000    -0.447358   
O31      O      0.175540000000     0.352350000000     0.258700000000    -0.450058   
O32      O      0.159220000000     0.344430000000     0.356440000000    -0.451361   
O33      O      0.844680000000     0.155470000000     0.085570000000    -0.449796   
O34      O      0.827050000000     0.144910000000     0.183010000000    -0.44973    
O35      O      0.801920000000     0.133090000000     0.121340000000    -0.449097   
O36      O      0.869870000000     0.167260000000     0.147320000000    -0.448432   
O37      O      0.869320000000     0.202130000000     0.148950000000    -0.450022   
O38      O      0.801600000000     0.168230000000     0.122550000000    -0.449998   
O39      O      0.826700000000     0.179910000000     0.184410000000    -0.449517   
O40      O      0.844520000000     0.190580000000     0.087270000000    -0.450294   
O41      O      0.510500000000     0.478990000000     0.418780000000    -0.449395   
O42      O      0.495400000000     0.471510000000     0.517130000000    -0.449415   
O43      O      0.468740000000     0.458790000000     0.456760000000    -0.448729   
O44      O      0.537300000000     0.491740000000     0.479330000000    -0.447804   
O45      O      0.537950000000     0.527370000000     0.479720000000    -0.45099    
O46      O      0.469650000000     0.494550000000     0.456620000000    -0.450179   
O47      O      0.496200000000     0.507080000000     0.517250000000    -0.448974   
O48      O      0.511730000000     0.514910000000     0.419140000000    -0.45056    
O49      O      0.170090000000     0.344320000000     0.757330000000    -0.45176    
O50      O      0.182430000000     0.340330000000     0.854860000000    -0.451645   
O51      O      0.193130000000     0.325110000000     0.794230000000    -0.451282   
O52      O      0.159090000000     0.359410000000     0.818070000000    -0.45048    
O53      O      0.124310000000     0.324050000000     0.821470000000    -0.451401   
O54      O      0.158370000000     0.289840000000     0.798310000000    -0.450486   
O55      O      0.147320000000     0.305090000000     0.858920000000    -0.450477   
O56      O      0.135230000000     0.308820000000     0.761060000000    -0.450604   
O57      O      0.351260000000     0.177820000000     0.680420000000    -0.449363   
O58      O      0.343910000000     0.188400000000     0.583270000000    -0.450619   
O59      O      0.330280000000     0.199610000000     0.644860000000    -0.451191   
O60      O      0.365090000000     0.166550000000     0.618610000000    -0.4501     
O61      O      0.330000000000     0.131150000000     0.617220000000    -0.452133   
O62      O      0.295220000000     0.164180000000     0.643270000000    -0.451068   
O63      O      0.309010000000     0.153010000000     0.581460000000    -0.450134   
O64      O      0.316390000000     0.142480000000     0.678850000000    -0.450524   
O65      O      0.013720000000     0.504420000000     0.025610000000    -0.449612   
O66      O      0.012750000000     0.519340000000     0.928080000000    -0.449584   
O67      O      0.996220000000     0.529240000000     0.988670000000    -0.448326   
O68      O      0.030070000000     0.494660000000     0.965120000000    -0.449984   
O69      O      0.994280000000     0.460460000000     0.958360000000    -0.450935   
O70      O      0.960720000000     0.494960000000     0.982780000000    -0.451802   
O71      O      0.976700000000     0.485420000000     0.922160000000    -0.451989   
O72      O      0.978080000000     0.470220000000     0.019100000000    -0.449807   
O73      O      0.674440000000     0.846930000000     0.261420000000    -0.44958    
O74      O      0.674250000000     0.833200000000     0.359660000000    -0.449693   
O75      O      0.691310000000     0.822690000000     0.300630000000    -0.450763   
O76      O      0.657430000000     0.857520000000     0.320380000000    -0.450072   
O77      O      0.621800000000     0.823380000000     0.313600000000    -0.44909    
O78      O      0.655910000000     0.788240000000     0.294940000000    -0.449458   
O79      O      0.638370000000     0.799250000000     0.353290000000    -0.451423   
O80      O      0.639060000000     0.812220000000     0.255130000000    -0.452721   
O81      O      0.851150000000     0.676020000000     0.188610000000    -0.451471   
O82      O      0.838400000000     0.681700000000     0.091740000000    -0.451153   
O83      O      0.826540000000     0.694450000000     0.153790000000    -0.450599   
O84      O      0.862970000000     0.663210000000     0.126730000000    -0.450444   
O85      O      0.829020000000     0.626890000000     0.130280000000    -0.451355   
O86      O      0.792330000000     0.658230000000     0.155030000000    -0.451019   
O87      O      0.804830000000     0.644990000000     0.093880000000    -0.450651   
O88      O      0.816590000000     0.640170000000     0.191570000000    -0.450529   
O89      O      0.503440000000     0.012660000000     0.409850000000    -0.481854   
O90      O      0.519670000000     0.014480000000     0.506960000000    -0.452047   
O91      O      0.527600000000     0.995280000000     0.447710000000    -0.455314   
O92      O      0.495800000000     0.032050000000     0.468810000000    -0.453324   
O93      O      0.460870000000     0.997540000000     0.477830000000    -0.450306   
O94      O      0.492220000000     0.960530000000     0.454600000000    -0.449303   
O95      O      0.484940000000     0.979260000000     0.514780000000    -0.44924    
O96      O      0.467450000000     0.978210000000     0.417690000000    -0.445815   
O97      O      0.302250000000     0.149160000000     0.079480000000    -0.450965   
O98      O      0.305680000000     0.164690000000     0.177300000000    -0.450626   
O99      O      0.320800000000     0.190980000000     0.116920000000    -0.448954   
O100     O      0.287180000000     0.122710000000     0.140010000000    -0.44852    
O101     O      0.322690000000     0.123560000000     0.143950000000    -0.45014    
O102     O      0.356360000000     0.191910000000     0.120640000000    -0.449733   
O103     O      0.341350000000     0.165570000000     0.181230000000    -0.450414   
O104     O      0.337790000000     0.149780000000     0.083440000000    -0.450496   
O105     O      0.480040000000     0.499660000000     0.019120000000    -0.448148   
O106     O      0.474830000000     0.485140000000     0.920530000000    -0.45128    
O107     O      0.460070000000     0.458170000000     0.980470000000    -0.449617   
O108     O      0.495650000000     0.526850000000     0.959050000000    -0.449122   
O109     O      0.530470000000     0.526030000000     0.960230000000    -0.451902   
O110     O      0.495100000000     0.457500000000     0.981330000000    -0.454703   
O111     O      0.509970000000     0.484710000000     0.921450000000    -0.450891   
O112     O      0.515360000000     0.499040000000     0.019710000000    -0.481847   
O113     O      0.153530000000     0.832840000000     0.347810000000    -0.448405   
O114     O      0.139470000000     0.815480000000     0.250480000000    -0.448871   
O115     O      0.129830000000     0.790170000000     0.311800000000    -0.450562   
O116     O      0.163090000000     0.858060000000     0.286430000000    -0.450811   
O117     O      0.198150000000     0.857720000000     0.282210000000    -0.450011   
O118     O      0.164480000000     0.789490000000     0.306150000000    -0.448469   
O119     O      0.174690000000     0.815550000000     0.245390000000    -0.451757   
O120     O      0.188050000000     0.831530000000     0.342830000000    -0.451162   
O121     O      0.984660000000     0.500500000000     0.520970000000    -0.45209    
O122     O      0.980610000000     0.483370000000     0.423930000000    -0.452542   
O123     O      0.967540000000     0.458140000000     0.485180000000    -0.451149   
O124     O      0.998080000000     0.526040000000     0.459580000000    -0.448252   
O125     O      0.034640000000     0.528830000000     0.463420000000    -0.45193    
O126     O      0.004000000000     0.460980000000     0.488110000000    -0.449448   
O127     O      0.017490000000     0.486830000000     0.426860000000    -0.448759   
O128     O      0.021240000000     0.503320000000     0.524660000000    -0.448323   
O129     O      0.810610000000     0.151030000000     0.587550000000    -0.450194   
O130     O      0.823190000000     0.167230000000     0.685240000000    -0.45046    
O131     O      0.834610000000     0.193240000000     0.624370000000    -0.45025    
O132     O      0.799210000000     0.125130000000     0.648450000000    -0.451372   
O133     O      0.833560000000     0.123400000000     0.644560000000    -0.449819   
O134     O      0.869050000000     0.191640000000     0.620750000000    -0.4503     
O135     O      0.857580000000     0.165570000000     0.681430000000    -0.451024   
O136     O      0.845150000000     0.149640000000     0.583770000000    -0.451073   
O137     O      0.648440000000     0.835880000000     0.855280000000    -0.447885   
O138     O      0.641340000000     0.816870000000     0.758560000000    -0.451363   
O139     O      0.628270000000     0.792640000000     0.820660000000    -0.450516   
O140     O      0.661470000000     0.860110000000     0.793210000000    -0.449781   
O141     O      0.697110000000     0.861110000000     0.796080000000    -0.450056   
O142     O      0.663870000000     0.793200000000     0.822040000000    -0.449139   
O143     O      0.677450000000     0.818510000000     0.760340000000    -0.451089   
O144     O      0.683670000000     0.835940000000     0.857630000000    -0.451876   
S1       S      0.655190000000     0.900340000000     0.790290000000    -0.0444166  
S2       S      0.013220000000     0.422800000000     0.494250000000    -0.0433491  
S3       S      0.171800000000     0.750470000000     0.316060000000    -0.0421982  
S4       S      0.576810000000     0.566180000000     0.962920000000    -0.0451688  
S5       S      0.241150000000     0.083090000000     0.148440000000    -0.0416195  
S6       S      0.314220000000     0.230960000000     0.113180000000    -0.0418465  
S7       S      0.604090000000     0.780550000000     0.406600000000    -0.0439829  
S8       S      0.637450000000     0.862900000000     0.902480000000    -0.0415164  
S9       S      0.737160000000     0.827850000000     0.302470000000    -0.0411256  
S10      S      0.663270000000     0.903950000000     0.315440000000    -0.0416776  
S11      S      0.943810000000     0.485620000000     0.872150000000    -0.0471104  
S12      S      0.944520000000     0.450060000000     0.073060000000    -0.0407707  
S13      S      0.914770000000     0.487330000000     0.995290000000    -0.0436375  
S14      S      0.374840000000     0.204060000000     0.739280000000    -0.0417313  
S15      S      0.355700000000     0.225860000000     0.535290000000    -0.0438626  
S16      S      0.504480000000     0.079060000000     0.474550000000    -0.0456037  
S17      S      0.078160000000     0.318870000000     0.820000000000    -0.0429855  
S18      S      0.152090000000     0.243610000000     0.792680000000    -0.0422986  
S19      S      0.501680000000     0.535340000000     0.575100000000    -0.0424283  
S20      S      0.534860000000     0.500740000000     0.048080000000     0.0912005  
S21      S      0.870110000000     0.228120000000     0.039290000000    -0.0420075  
S22      S      0.833560000000     0.207500000000     0.243620000000    -0.0421592  
S23      S      0.163900000000     0.286430000000     0.415730000000    -0.0422018  
S24      S      0.174620000000     0.377980000000     0.201130000000    -0.0424202  
S25      S      0.908590000000     0.248340000000     0.157740000000    -0.0409353  
S26      S      0.241090000000     0.412590000000     0.324790000000    -0.0408726  
S27      S      0.541670000000     0.060340000000     0.862260000000    -0.0473026  
S28      S      0.519400000000     0.029430000000     0.377860000000     0.09267    
S29      S      0.578940000000     0.085750000000     0.972320000000    -0.0414402  
S30      S      0.210400000000     0.815130000000     0.697860000000    -0.0452115  
S31      S      0.160840000000     0.867190000000     0.905760000000    -0.0418158  
S32      S      0.429560000000     0.012810000000     0.947260000000    -0.0430083  
S33      S      0.868020000000     0.662240000000     0.747680000000    -0.0353122  
S34      S      0.836730000000     0.706830000000     0.535550000000    -0.0407111  
S35      S      0.760730000000     0.669080000000     0.622180000000    -0.042751   
S36      S      0.886890000000     0.698690000000     0.733830000000    -0.0394964  


