data_structure

_audit_creation_method RASPA-1.0
_audit_creation_date 2023-6-5
_audit_author_name 'Poobodin Mano'

_cell_length_a    62.9732
_cell_length_b    62.951
_cell_length_c    38.0163
_cell_angle_alpha 89.9462
_cell_angle_beta  90.0534
_cell_angle_gamma 119.908
_cell_volume      130635

_symmetry_cell_setting          triclinic
_symmetry_space_group_name_Hall 'P 1'
_symmetry_space_group_name_H-M  'P 1'
_symmetry_Int_Tables_number     1

_symmetry_equiv_pos_as_xyz 'x,y,z'

loop_
_atom_site_label
_atom_site_type_symbol
_atom_site_fract_x
_atom_site_fract_y
_atom_site_fract_z
_atom_site_charge
C1       C      0.841280000000     0.663380000000     0.571820000000     0.460287   
C2       C      0.819650000000     0.654740000000     0.702690000000     0.460158   
C3       C      0.785200000000     0.635790000000     0.620330000000     0.437293   
C4       C      0.875930000000     0.682450000000     0.654150000000     0.437327   
C5       C      0.175660000000     0.837300000000     0.739070000000     0.461835   
C6       C      0.152210000000     0.820230000000     0.869130000000     0.460722   
C7       C      0.118700000000     0.806200000000     0.786050000000     0.460722   
C8       C      0.209070000000     0.851350000000     0.822070000000     0.43774    
C9       C      0.508140000000     0.993660000000     0.904880000000     0.436439   
C10      C      0.486620000000     0.991020000000     0.035110000000     0.436418   
C11      C      0.452100000000     0.971200000000     0.953040000000     0.459268   
C12      C      0.542820000000     0.013660000000     0.987000000000     0.435457   
C13      C      0.153190000000     0.324470000000     0.368180000000     0.436669   
C14      C      0.175190000000     0.327950000000     0.238010000000     0.436295   
C15      C      0.209580000000     0.348640000000     0.320250000000     0.458959   
C16      C      0.118890000000     0.303820000000     0.285910000000     0.435088   
C17      C      0.842350000000     0.166980000000     0.070040000000     0.437705   
C18      C      0.820380000000     0.147770000000     0.200180000000     0.460449   
C19      C      0.785890000000     0.134380000000     0.117780000000     0.459233   
C20      C      0.876590000000     0.180300000000     0.152360000000     0.460663   
C21      C      0.487060000000     0.484410000000     0.532150000000     0.437029   
C22      C      0.509550000000     0.499320000000     0.401730000000     0.436481   
C23      C      0.543600000000     0.514880000000     0.484430000000     0.45959    
C24      C      0.453030000000     0.468850000000     0.449560000000     0.435393   
C25      C      0.155930000000     0.332690000000     0.738070000000     0.461125   
C26      C      0.172490000000     0.326160000000     0.868350000000     0.463059   
C27      C      0.189120000000     0.309210000000     0.785490000000     0.46324    
C28      C      0.139250000000     0.349730000000     0.821130000000     0.460732   
C29      C      0.330650000000     0.173880000000     0.570350000000     0.460112   
C30      C      0.332610000000     0.154090000000     0.700560000000     0.46039    
C31      C      0.352290000000     0.139340000000     0.618320000000     0.437626   
C32      C      0.310950000000     0.188600000000     0.652640000000     0.437415   
C33      C      0.994380000000     0.482340000000     0.036390000000     0.461664   
C34      C      0.990990000000     0.499520000000     0.905510000000     0.462023   
C35      C      0.970610000000     0.514440000000     0.987200000000     0.461675   
C36      C      0.014840000000     0.467590000000     0.954790000000     0.436178   
C37      C      0.664620000000     0.819310000000     0.368160000000     0.460991   
C38      C      0.660360000000     0.836440000000     0.237540000000     0.436075   
C39      C      0.640500000000     0.851340000000     0.319490000000     0.435905   
C40      C      0.684610000000     0.804560000000     0.286120000000     0.437213   
C41      C      0.819080000000     0.661410000000     0.071870000000     0.437387   
C42      C      0.833800000000     0.654720000000     0.202650000000     0.436951   
C43      C      0.848950000000     0.635180000000     0.120640000000     0.435896   
C44      C      0.803720000000     0.680910000000     0.153880000000     0.459294   
C45      C      0.503060000000     0.990180000000     0.535180000000     0.463606   
C46      C      0.487150000000     0.997270000000     0.404820000000     0.461136   
C47      C      0.471090000000     0.015070000000     0.487610000000     0.460467   
C48      C      0.518980000000     0.972390000000     0.452340000000     0.462822   
C49      C      0.334770000000     0.175370000000     0.200620000000     0.434989   
C50      C      0.328590000000     0.152810000000     0.070290000000     0.435474   
C51      C      0.311020000000     0.118880000000     0.153020000000     0.435392   
C52      C      0.352350000000     0.209300000000     0.117870000000     0.435259   
C53      C      0.487840000000     0.486450000000     0.902040000000     0.461116   
C54      C      0.506320000000     0.507130000000     0.032640000000     0.462245   
C55      C      0.521160000000     0.542330000000     0.950870000000     0.462346   
C56      C      0.473220000000     0.451390000000     0.983900000000     0.459972   
C57      C      0.176630000000     0.842310000000     0.369370000000     0.437325   
C58      C      0.157900000000     0.820430000000     0.239160000000     0.437066   
C59      C      0.143630000000     0.786070000000     0.321480000000     0.459417   
C60      C      0.190850000000     0.876760000000     0.286960000000     0.459245   
C61      C      0.997090000000     0.486940000000     0.406230000000     0.436871   
C62      C      0.004550000000     0.509210000000     0.536730000000     0.434488   
C63      C      0.023000000000     0.543470000000     0.454150000000     0.433866   
C64      C      0.978730000000     0.452840000000     0.488690000000     0.436649   
C65      C      0.841970000000     0.175090000000     0.700320000000     0.460738   
C66      C      0.825860000000     0.152600000000     0.569910000000     0.436806   
C67      C      0.810290000000     0.118660000000     0.652580000000     0.436973   
C68      C      0.857720000000     0.209220000000     0.617620000000     0.46027    
C69      C      0.667830000000     0.842120000000     0.868340000000     0.461324   
C70      C      0.661220000000     0.819660000000     0.737940000000     0.43711    
C71      C      0.642510000000     0.785600000000     0.820570000000     0.435511   
C72      C      0.686420000000     0.876210000000     0.785690000000     0.460535   
C73      C      0.697310000000     0.936230000000     0.754720000000    -0.218092   
C74      C      0.810120000000     0.082100000000     0.669310000000     0.0785191  
C75      C      0.773110000000     0.083350000000     0.670240000000     0.0797798  
C76      C      0.798040000000     0.058210000000     0.682470000000    -0.0920666  
C77      C      0.770960000000     0.014850000000     0.731790000000    -0.03773    
C78      C      0.758800000000     0.991270000000     0.746130000000    -0.0221224  
C79      C      0.760000000000     0.021530000000     0.705020000000    -0.000380778
C80      C      0.760440000000     0.059420000000     0.683270000000    -0.0907749  
C81      C      0.735420000000     0.973770000000     0.733960000000    -0.0254658  
C82      C      0.735530000000     0.936390000000     0.756850000000    -0.126995   
C83      C      0.724460000000     0.980490000000     0.707200000000    -0.0214861  
C84      C      0.723130000000     0.912450000000     0.769790000000     0.0996187  
C85      C      0.685370000000     0.912240000000     0.767620000000     0.419193   
C86      C      0.736580000000     0.004110000000     0.692960000000    -0.0372069  
C87      C      0.772950000000     0.046650000000     0.689920000000     0.0522961  
C88      C      0.722620000000     0.948540000000     0.748820000000     0.111084   
C89      C      0.907210000000     0.269090000000     0.587110000000    -0.218503   
C90      C      0.942130000000     0.416570000000     0.505270000000     0.0768436  
C91      C      0.979980000000     0.417000000000     0.505530000000     0.0768968  
C92      C      0.930050000000     0.392550000000     0.517980000000    -0.0927247  
C93      C      0.913230000000     0.348500000000     0.566170000000    -0.0376929  
C94      C      0.901570000000     0.324770000000     0.580000000000    -0.0226807  
C95      C      0.930790000000     0.355210000000     0.539360000000    -0.00136485 
C96      C      0.968450000000     0.392940000000     0.518100000000    -0.0925084  
C97      C      0.907140000000     0.307140000000     0.567270000000    -0.0254526  
C98      C      0.869460000000     0.269860000000     0.589610000000    -0.126349   
C99      C      0.924740000000     0.313890000000     0.540460000000    -0.022392   
C100     C      0.857710000000     0.245820000000     0.602180000000     0.100139   
C101     C      0.894940000000     0.245000000000     0.599650000000     0.417639   
C102     C      0.936450000000     0.337650000000     0.526710000000    -0.0375687  
C103     C      0.943230000000     0.380500000000     0.524830000000     0.0513279  
C104     C      0.894480000000     0.281760000000     0.581620000000     0.110599   
C105     C      0.094490000000     0.726350000000     0.353010000000    -0.219063   
C106     C      0.021710000000     0.579100000000     0.436270000000     0.0763111  
C107     C      0.059680000000     0.579820000000     0.438030000000     0.0764607  
C108     C      0.033240000000     0.603070000000     0.423390000000    -0.0925361  
C109     C      0.059610000000     0.647440000000     0.375980000000    -0.0378293  
C110     C      0.071370000000     0.671050000000     0.361720000000    -0.0227258  
C111     C      0.071020000000     0.640880000000     0.402290000000    -0.00145521 
C112     C      0.071780000000     0.603760000000     0.425030000000    -0.0925298  
C113     C      0.094870000000     0.688630000000     0.373290000000    -0.0263891  
C114     C      0.132220000000     0.725590000000     0.349770000000    -0.127818   
C115     C      0.106310000000     0.682100000000     0.399510000000    -0.0230213  
C116     C      0.143800000000     0.749510000000     0.336730000000     0.0982398  
C117     C      0.106610000000     0.750360000000     0.340140000000     0.416812   
C118     C      0.094510000000     0.658530000000     0.413900000000    -0.0383151  
C119     C      0.058550000000     0.615660000000     0.417230000000     0.0507498  
C120     C      0.107320000000     0.713790000000     0.358360000000     0.110283   
C121     C      0.570770000000     0.602080000000     0.920250000000    -0.217478   
C122     C      0.605950000000     0.749370000000     0.837360000000     0.0781775  
C123     C      0.643850000000     0.749880000000     0.837930000000     0.0771602  
C124     C      0.593910000000     0.725440000000     0.850390000000    -0.0914494  
C125     C      0.577290000000     0.681770000000     0.899360000000    -0.0378129  
C126     C      0.565590000000     0.658090000000     0.913410000000    -0.0221532  
C127     C      0.594700000000     0.688270000000     0.872370000000    -0.000826673
C128     C      0.632350000000     0.725890000000     0.850790000000    -0.092253   
C129     C      0.570940000000     0.640310000000     0.900700000000    -0.0249152  
C130     C      0.533290000000     0.603280000000     0.923800000000    -0.125309   
C131     C      0.588390000000     0.646860000000     0.873690000000    -0.0217644  
C132     C      0.521450000000     0.579240000000     0.936370000000     0.102015   
C133     C      0.558420000000     0.577990000000     0.932750000000     0.42028    
C134     C      0.600170000000     0.670570000000     0.859770000000    -0.0372346  
C135     C      0.607130000000     0.713460000000     0.857540000000     0.051512   
C136     C      0.558210000000     0.614960000000     0.915230000000     0.111474   
C137     C      0.203590000000     0.937620000000     0.257250000000    -0.219626   
C138     C      0.313600000000     0.083870000000     0.170720000000     0.0764107  
C139     C      0.275040000000     0.081900000000     0.169020000000     0.0770006  
C140     C      0.302630000000     0.059810000000     0.183280000000    -0.09215    
C141     C      0.276670000000     0.014680000000     0.229930000000    -0.0381055  
C142     C      0.264880000000     0.991080000000     0.244340000000    -0.0227586  
C143     C      0.265260000000     0.021170000000     0.203540000000    -0.00123298 
C144     C      0.263510000000     0.057890000000     0.181660000000    -0.092526   
C145     C      0.241370000000     0.973510000000     0.232820000000    -0.0263322  
C146     C      0.240650000000     0.935540000000     0.254770000000    -0.127737   
C147     C      0.230100000000     0.979870000000     0.206140000000    -0.0225577  
C148     C      0.227820000000     0.911730000000     0.268210000000     0.0984569  
C149     C      0.191280000000     0.913850000000     0.270890000000     0.417217   
C150     C      0.241930000000     0.003380000000     0.191600000000    -0.0377502  
C151     C      0.277300000000     0.046540000000     0.189160000000     0.0509898  
C152     C      0.228440000000     0.948630000000     0.248640000000     0.110726   
C153     C      0.460050000000     0.390320000000     0.013200000000    -0.218652   
C154     C      0.349800000000     0.244320000000     0.100100000000     0.0763617  
C155     C      0.388350000000     0.246260000000     0.101820000000     0.0768834  
C156     C      0.360780000000     0.268370000000     0.087510000000    -0.0924961  
C157     C      0.386810000000     0.313500000000     0.040810000000    -0.0375112  
C158     C      0.398660000000     0.337080000000     0.026340000000    -0.0229176  
C159     C      0.398190000000     0.306980000000     0.067210000000    -0.00147512 
C160     C      0.399880000000     0.270250000000     0.089140000000    -0.0924043  
C161     C      0.422210000000     0.354600000000     0.037790000000    -0.0256473  
C162     C      0.423140000000     0.392670000000     0.015810000000    -0.12675    
C163     C      0.433440000000     0.348220000000     0.064510000000    -0.022755   
C164     C      0.436090000000     0.416490000000     0.002420000000     0.100014   
C165     C      0.472480000000     0.414090000000     0.999600000000     0.419654   
C166     C      0.421560000000     0.324740000000     0.079110000000    -0.0372478  
C167     C      0.386120000000     0.281620000000     0.081620000000     0.0511225  
C168     C      0.435220000000     0.379450000000     0.021890000000     0.111267   
C169     C      0.684820000000     0.826730000000     0.460350000000    -0.220226   
C170     C      0.639200000000     0.808840000000     0.683850000000     0.0795307  
C171     C      0.680370000000     0.817520000000     0.685180000000     0.0781518  
C172     C      0.638350000000     0.805660000000     0.647420000000    -0.0907681  
C173     C      0.645340000000     0.815530000000     0.569710000000    -0.0376169  
C174     C      0.646140000000     0.815440000000     0.533020000000    -0.0217415  
C175     C      0.659440000000     0.808260000000     0.589860000000    -0.000273842
C176     C      0.680360000000     0.815080000000     0.648680000000    -0.0913765  
C177     C      0.661430000000     0.808640000000     0.515610000000    -0.027731   
C178     C      0.642490000000     0.795270000000     0.456410000000    -0.129727   
C179     C      0.675520000000     0.801340000000     0.535300000000    -0.0219958  
C180     C      0.643790000000     0.798000000000     0.419930000000     0.0997794  
C181     C      0.685420000000     0.829490000000     0.423790000000     0.417714   
C182     C      0.674310000000     0.800850000000     0.572050000000    -0.0373608  
C183     C      0.659280000000     0.809350000000     0.629100000000     0.0516859  
C184     C      0.663070000000     0.809900000000     0.476920000000     0.112461   
C185     C      0.651870000000     0.852920000000     0.957030000000    -0.21904    
C186     C      0.642100000000     0.822110000000     0.181370000000     0.0770703  
C187     C      0.677760000000     0.861220000000     0.186520000000     0.0771252  
C188     C      0.642700000000     0.824370000000     0.144840000000    -0.0935909  
C189     C      0.663850000000     0.828210000000     0.071030000000    -0.0384463  
C190     C      0.666020000000     0.829530000000     0.034480000000    -0.0226647  
C191     C      0.663350000000     0.847050000000     0.090050000000    -0.00181532 
C192     C      0.678620000000     0.864270000000     0.150020000000    -0.0927906  
C193     C      0.667290000000     0.849510000000     0.016200000000    -0.0272156  
C194     C      0.686580000000     0.846800000000     0.960400000000    -0.128961   
C195     C      0.666600000000     0.868310000000     0.035130000000    -0.0222018  
C196     C      0.686530000000     0.845260000000     0.923820000000     0.0996969  
C197     C      0.651970000000     0.850830000000     0.920410000000     0.418312   
C198     C      0.664940000000     0.867230000000     0.071880000000    -0.0378901  
C199     C      0.661300000000     0.845450000000     0.128810000000     0.0516905  
C200     C      0.668880000000     0.850250000000     0.977380000000     0.111613   
C201     C      0.755100000000     0.692960000000     0.183410000000    -0.219314   
C202     C      0.721320000000     0.804700000000     0.270590000000     0.0792762  
C203     C      0.683240000000     0.767670000000     0.268010000000     0.0781736  
C204     C      0.733410000000     0.792840000000     0.257580000000    -0.0913161  
C205     C      0.755740000000     0.760350000000     0.246340000000    -0.0378446  
C206     C      0.767470000000     0.748510000000     0.231860000000    -0.0223909  
C207     C      0.732560000000     0.755150000000     0.234100000000    -0.000790429
C208     C      0.694770000000     0.755240000000     0.255010000000    -0.0919699  
C209     C      0.756260000000     0.731150000000     0.204880000000    -0.0260964  
C210     C      0.793610000000     0.730680000000     0.183010000000    -0.127699   
C211     C      0.733120000000     0.725990000000     0.192580000000    -0.0222708  
C212     C      0.804880000000     0.717960000000     0.170170000000     0.098585   
C213     C      0.766880000000     0.680700000000     0.170710000000     0.417147   
C214     C      0.721420000000     0.737870000000     0.206980000000    -0.0374303  
C215     C      0.720120000000     0.767860000000     0.249260000000     0.0518548  
C216     C      0.768470000000     0.718150000000     0.190080000000     0.110877   
C217     C      0.568730000000     0.962320000000     0.421930000000    -0.217778   
C218     C      0.603760000000     0.851400000000     0.334110000000     0.0771146  
C219     C      0.641970000000     0.888190000000     0.337980000000     0.0785231  
C220     C      0.591670000000     0.863340000000     0.346850000000    -0.0922014  
C221     C      0.569540000000     0.895990000000     0.357690000000    -0.0377345  
C222     C      0.557660000000     0.907680000000     0.372070000000    -0.0222588  
C223     C      0.592560000000     0.901030000000     0.370450000000    -0.000730616
C224     C      0.630460000000     0.900710000000     0.350680000000    -0.091526   
C225     C      0.568540000000     0.924760000000     0.399450000000    -0.0253041  
C226     C      0.530730000000     0.924070000000     0.421580000000    -0.126334   
C227     C      0.591610000000     0.929940000000     0.412090000000    -0.0214841  
C228     C      0.518950000000     0.936130000000     0.434890000000     0.102717   
C229     C      0.556410000000     0.973930000000     0.435080000000     0.421198   
C230     C      0.603460000000     0.918170000000     0.397810000000    -0.0369409  
C231     C      0.605030000000     0.888250000000     0.355640000000     0.0516021  
C232     C      0.555870000000     0.937190000000     0.414630000000     0.112221   
C233     C      0.975420000000     0.488240000000     0.811680000000    -0.221013   
C234     C      0.988240000000     0.517040000000     0.588480000000     0.077556   
C235     C      0.023370000000     0.512510000000     0.592330000000     0.0766927  
C236     C      0.987710000000     0.518910000000     0.625060000000    -0.0913734  
C237     C      0.001080000000     0.533710000000     0.703470000000    -0.0406463  
C238     C      0.998620000000     0.532080000000     0.740120000000    -0.0196185  
C239     C      0.002780000000     0.515490000000     0.684440000000    -0.000100292
C240     C      0.023070000000     0.513820000000     0.628950000000    -0.0928375  
C241     C      0.997210000000     0.511900000000     0.758080000000    -0.0285923  
C242     C      0.010690000000     0.528300000000     0.818830000000    -0.129102   
C243     C      0.998790000000     0.493670000000     0.738980000000    -0.0197174  
C244     C      0.008930000000     0.524740000000     0.855220000000     0.100322   
C245     C      0.973810000000     0.485380000000     0.848170000000     0.419272   
C246     C      0.001760000000     0.495550000000     0.702540000000    -0.0402264  
C247     C      0.004860000000     0.516640000000     0.645670000000     0.0499214  
C248     C      0.994180000000     0.509670000000     0.796690000000     0.114387   
C249     C      0.973700000000     0.458770000000     0.125730000000    -0.220938   
C250     C      0.015580000000     0.484430000000     0.352980000000     0.0759076  
C251     C      0.974420000000     0.475830000000     0.352740000000     0.0771963  
C252     C      0.015060000000     0.481660000000     0.316490000000    -0.0933525  
C253     C      0.007700000000     0.466500000000     0.240110000000    -0.0390708  
C254     C      0.008170000000     0.466410000000     0.203320000000    -0.023854   
C255     C      0.993250000000     0.474270000000     0.258270000000    -0.000316091
C256     C      0.973060000000     0.472310000000     0.316370000000    -0.0924158  
C257     C      0.993760000000     0.473490000000     0.184010000000    -0.0267913  
C258     C      0.015740000000     0.491120000000     0.127720000000    -0.129907   
C259     C      0.978940000000     0.480710000000     0.201790000000    -0.0222234  
C260     C      0.015400000000     0.493240000000     0.091180000000     0.100224   
C261     C      0.974060000000     0.460910000000     0.089130000000     0.418337   
C262     C      0.978870000000     0.481370000000     0.238490000000    -0.0374858  
C263     C      0.993710000000     0.475790000000     0.297500000000     0.0517582  
C264     C      0.994570000000     0.474110000000     0.145270000000     0.113654   
C265     C      0.959540000000     0.563340000000     0.018530000000    -0.218598   
C266     C      0.848030000000     0.598150000000     0.104530000000     0.0773115  
C267     C      0.885580000000     0.635790000000     0.103290000000     0.0772437  
C268     C      0.859610000000     0.585770000000     0.091550000000    -0.0922429  
C269     C      0.886120000000     0.568630000000     0.042180000000    -0.0373158  
C270     C      0.898100000000     0.557100000000     0.027540000000    -0.0221589  
C271     C      0.897220000000     0.586040000000     0.069120000000    -0.00100774 
C272     C      0.897750000000     0.623960000000     0.090490000000    -0.0925465  
C273     C      0.921430000000     0.562650000000     0.039610000000    -0.0250046  
C274     C      0.921300000000     0.525430000000     0.015540000000    -0.125221   
C275     C      0.932430000000     0.579960000000     0.066740000000    -0.0219052  
C276     C      0.933760000000     0.514000000000     0.002380000000     0.102931   
C277     C      0.971530000000     0.551390000000     0.005430000000     0.418861   
C278     C      0.920490000000     0.591560000000     0.081260000000    -0.0373259  
C279     C      0.884720000000     0.598710000000     0.084080000000     0.0517061  
C280     C      0.934210000000     0.550340000000     0.024220000000     0.111656   
C281     C      0.352070000000     0.159420000000     0.792890000000    -0.219847   
C282     C      0.306370000000     0.141330000000     0.016370000000     0.0769922  
C283     C      0.347850000000     0.151000000000     0.017390000000     0.0770613  
C284     C      0.305430000000     0.138010000000     0.979960000000    -0.0921188  
C285     C      0.311720000000     0.147510000000     0.902130000000    -0.0377132  
C286     C      0.312390000000     0.147420000000     0.865420000000    -0.0226014  
C287     C      0.326430000000     0.140960000000     0.922170000000    -0.00090574 
C288     C      0.347740000000     0.148460000000     0.980870000000    -0.0915311  
C289     C      0.328180000000     0.141340000000     0.847830000000    -0.0273236  
C290     C      0.309330000000     0.129270000000     0.788190000000    -0.129103   
C291     C      0.342830000000     0.134690000000     0.867430000000    -0.022402   
C292     C      0.310940000000     0.132500000000     0.751760000000     0.0991455  
C293     C      0.352990000000     0.162720000000     0.756440000000     0.417326   
C294     C      0.341740000000     0.134190000000     0.904200000000    -0.0373316  
C295     C      0.326440000000     0.142160000000     0.961450000000     0.0509426  
C296     C      0.329970000000     0.143010000000     0.809100000000     0.111627   
C297     C      0.311210000000     0.168540000000     0.478010000000    -0.220098   
C298     C      0.356970000000     0.186810000000     0.254550000000     0.0764883  
C299     C      0.315500000000     0.177150000000     0.253520000000     0.0764129  
C300     C      0.357900000000     0.190110000000     0.290960000000    -0.0921978  
C301     C      0.351590000000     0.180550000000     0.368780000000    -0.0381013  
C302     C      0.350900000000     0.180620000000     0.405490000000    -0.0229126  
C303     C      0.336880000000     0.187110000000     0.348760000000    -0.00131874 
C304     C      0.315590000000     0.179670000000     0.290030000000    -0.091949   
C305     C      0.335110000000     0.186680000000     0.423090000000    -0.0277179  
C306     C      0.353930000000     0.198740000000     0.482740000000    -0.129424   
C307     C      0.320460000000     0.193340000000     0.403510000000    -0.0230586  
C308     C      0.352310000000     0.195510000000     0.519170000000     0.0986502  
C309     C      0.310290000000     0.165230000000     0.514460000000     0.416767   
C310     C      0.321560000000     0.193870000000     0.366730000000    -0.0380126  
C311     C      0.336880000000     0.185950000000     0.309470000000     0.0502665  
C312     C      0.333300000000     0.184990000000     0.461830000000     0.111165   
C313     C      0.421280000000     0.025280000000     0.517330000000    -0.217751   
C314     C      0.388390000000     0.138150000000     0.603430000000     0.0797657  
C315     C      0.349620000000     0.101990000000     0.599350000000     0.0793346  
C316     C      0.399900000000     0.125760000000     0.590340000000    -0.0917804  
C317     C      0.416000000000     0.098980000000     0.540170000000    -0.0377151  
C318     C      0.427470000000     0.086800000000     0.526080000000    -0.0226486  
C319     C      0.397920000000     0.087810000000     0.566230000000    -0.000835221
C320     C      0.360590000000     0.088990000000     0.586420000000    -0.0914641  
C321     C      0.421240000000     0.063210000000     0.537850000000    -0.0252302  
C322     C      0.459140000000     0.063640000000     0.516440000000    -0.126169   
C323     C      0.403000000000     0.051980000000     0.563770000000    -0.0218907  
C324     C      0.471000000000     0.051460000000     0.503840000000     0.100491   
C325     C      0.433680000000     0.013550000000     0.504860000000     0.418279   
C326     C      0.391420000000     0.064120000000     0.577710000000    -0.0369451  
C327     C      0.385980000000     0.100960000000     0.581350000000     0.0523993  
C328     C      0.434000000000     0.050560000000     0.523580000000     0.110762   
C329     C      0.088740000000     0.358090000000     0.853030000000    -0.218069   
C330     C      0.051630000000     0.467790000000     0.939690000000     0.0782608  
C331     C      0.013650000000     0.430650000000     0.937300000000     0.078901   
C332     C      0.063820000000     0.455940000000     0.927080000000    -0.0914983  
C333     C      0.086680000000     0.424020000000     0.916510000000    -0.0379253  
C334     C      0.098860000000     0.412690000000     0.901940000000    -0.0222583  
C335     C      0.063280000000     0.418230000000     0.904420000000    -0.000287167
C336     C      0.025290000000     0.418210000000     0.924760000000    -0.0897504  
C337     C      0.087910000000     0.395220000000     0.875050000000    -0.0257496  
C338     C      0.125920000000     0.397070000000     0.851460000000    -0.126842   
C339     C      0.064420000000     0.389210000000     0.863190000000    -0.0214732  
C340     C      0.138150000000     0.385530000000     0.837890000000     0.100709   
C341     C      0.101510000000     0.347000000000     0.839620000000     0.418917   
C342     C      0.052280000000     0.400630000000     0.877640000000    -0.037065   
C343     C      0.050650000000     0.430890000000     0.919130000000     0.0517745  
C344     C      0.100980000000     0.383320000000     0.859520000000     0.111452   
C345     C      0.240060000000     0.300580000000     0.756410000000    -0.217227   
C346     C      0.274800000000     0.189670000000     0.667530000000     0.0797235  
C347     C      0.313520000000     0.225800000000     0.672210000000     0.0792475  
C348     C      0.263220000000     0.201900000000     0.680960000000    -0.0920566  
C349     C      0.246840000000     0.227870000000     0.731960000000    -0.0374218  
C350     C      0.235060000000     0.239660000000     0.746310000000    -0.0225564  
C351     C      0.265040000000     0.239470000000     0.706170000000    -0.000944843
C352     C      0.302490000000     0.238650000000     0.685520000000    -0.091534   
C353     C      0.241100000000     0.263310000000     0.735080000000    -0.0248675  
C354     C      0.202570000000     0.261870000000     0.755660000000    -0.126055   
C355     C      0.259550000000     0.275040000000     0.709570000000    -0.0218432  
C356     C      0.190190000000     0.273480000000     0.768300000000     0.102977   
C357     C      0.227130000000     0.311750000000     0.768940000000     0.421151   
C358     C      0.271440000000     0.263270000000     0.695350000000    -0.0367203  
C359     C      0.277090000000     0.226590000000     0.690520000000     0.0524587  
C360     C      0.227800000000     0.275410000000     0.749350000000     0.111798   
C361     C      0.463330000000     0.483270000000     0.813220000000    -0.219825   
C362     C      0.485090000000     0.463770000000     0.585610000000     0.0780386  
C363     C      0.476150000000     0.496130000000     0.585650000000     0.0798272  
C364     C      0.482800000000     0.461870000000     0.622190000000    -0.0914114  
C365     C      0.469070000000     0.455040000000     0.699150000000    -0.0369316  
C366     C      0.469650000000     0.455000000000     0.735940000000    -0.021853   
C367     C      0.476240000000     0.476930000000     0.680400000000    -0.00019652 
C368     C      0.473100000000     0.494310000000     0.622100000000    -0.0908528  
C369     C      0.476810000000     0.476680000000     0.754710000000    -0.0266012  
C370     C      0.495060000000     0.472630000000     0.810690000000    -0.126896   
C371     C      0.483440000000     0.498410000000     0.736340000000    -0.0213811  
C372     C      0.497750000000     0.475510000000     0.847130000000     0.102864   
C373     C      0.466020000000     0.485450000000     0.849740000000     0.419099   
C374     C      0.483440000000     0.498620000000     0.699630000000    -0.0364793  
C375     C      0.477060000000     0.477480000000     0.641120000000     0.0520622  
C376     C      0.478070000000     0.477030000000     0.793430000000     0.113354   
C377     C      0.534100000000     0.515480000000     0.120370000000    -0.217731   
C378     C      0.513350000000     0.484090000000     0.346190000000     0.0776401  
C379     C      0.518020000000     0.523810000000     0.350160000000     0.0783572  
C380     C      0.515270000000     0.486030000000     0.309610000000    -0.0930231  
C381     C      0.498740000000     0.490020000000     0.235150000000    -0.0381471  
C382     C      0.497680000000     0.491570000000     0.198640000000    -0.0222018  
C383     C      0.518220000000     0.508680000000     0.254170000000    -0.00141435 
C384     C      0.520490000000     0.526540000000     0.313670000000    -0.0922469  
C385     C      0.516290000000     0.511590000000     0.180400000000    -0.0265928  
C386     C      0.493760000000     0.510360000000     0.125800000000    -0.128662   
C387     C      0.536030000000     0.530090000000     0.199290000000    -0.0217106  
C388     C      0.491810000000     0.509640000000     0.089240000000     0.101098   
C389     C      0.531420000000     0.514190000000     0.083760000000     0.421585   
C390     C      0.536830000000     0.528790000000     0.235990000000    -0.0372943  
C391     C      0.518510000000     0.507280000000     0.292990000000     0.0520941  
C392     C      0.514900000000     0.512900000000     0.141700000000     0.112561   
C393     C      0.830560000000     0.182050000000     0.793270000000    -0.218414   
C394     C      0.847450000000     0.154170000000     0.013320000000     0.0803517  
C395     C      0.850650000000     0.193060000000     0.020320000000     0.0808273  
C396     C      0.850340000000     0.157640000000     0.976990000000    -0.09026    
C397     C      0.866130000000     0.172550000000     0.901880000000    -0.0371326  
C398     C      0.865610000000     0.173720000000     0.865200000000    -0.0215382  
C399     C      0.854840000000     0.182520000000     0.922800000000     0.000603209
C400     C      0.853960000000     0.197280000000     0.984120000000    -0.0901464  
C401     C      0.854080000000     0.185210000000     0.848390000000    -0.0245748  
C402     C      0.870230000000     0.185650000000     0.787610000000    -0.12556    
C403     C      0.843680000000     0.196070000000     0.869350000000    -0.0208221  
C404     C      0.866770000000     0.182960000000     0.751250000000     0.100612   
C405     C      0.827770000000     0.179760000000     0.756770000000     0.418061   
C406     C      0.843900000000     0.194600000000     0.906010000000    -0.0365112  
C407     C      0.853380000000     0.179290000000     0.961770000000     0.0526609  
C408     C      0.851790000000     0.184680000000     0.809290000000     0.111059   
C409     C      0.817820000000     0.123580000000     0.289050000000    -0.219294   
C410     C      0.804560000000     0.150390000000     0.517030000000     0.0784521  
C411     C      0.836540000000     0.140910000000     0.516140000000     0.0794918  
C412     C      0.801880000000     0.147460000000     0.480590000000    -0.090897   
C413     C      0.792940000000     0.131990000000     0.404400000000    -0.0370823  
C414     C      0.791940000000     0.131790000000     0.367620000000    -0.0219591  
C415     C      0.815240000000     0.139260000000     0.422050000000    -0.000163204
C416     C      0.833920000000     0.137210000000     0.479810000000    -0.0906577  
C417     C      0.813030000000     0.138210000000     0.347780000000    -0.0267951  
C418     C      0.808070000000     0.155940000000     0.291880000000    -0.127772   
C419     C      0.835130000000     0.144870000000     0.365070000000    -0.021775   
C420     C      0.810290000000     0.158220000000     0.255330000000     0.101183   
C421     C      0.819330000000     0.125870000000     0.252440000000     0.419994   
C422     C      0.836310000000     0.145660000000     0.401750000000    -0.0367516  
C423     C      0.816820000000     0.141030000000     0.461270000000     0.0518777  
C424     C      0.812430000000     0.138880000000     0.309040000000     0.11282    
C425     C      0.166800000000     0.351280000000     0.645130000000    -0.217446   
C426     C      0.148570000000     0.306520000000     0.424820000000     0.0778348  
C427     C      0.145060000000     0.342080000000     0.418230000000     0.078916   
C428     C      0.146000000000     0.307090000000     0.461220000000    -0.0915266  
C429     C      0.130890000000     0.306150000000     0.536680000000    -0.0376049  
C430     C      0.131700000000     0.307840000000     0.573350000000    -0.0221148  
C431     C      0.141860000000     0.327390000000     0.515700000000    -0.000321083
C432     C      0.142070000000     0.342980000000     0.454510000000    -0.0910537  
C433     C      0.143170000000     0.330820000000     0.590130000000    -0.0245875  
C434     C      0.127420000000     0.314960000000     0.650990000000    -0.125438   
C435     C      0.153260000000     0.352060000000     0.569140000000    -0.0215177  
C436     C      0.131040000000     0.315690000000     0.687300000000     0.101022   
C437     C      0.169750000000     0.351750000000     0.681620000000     0.41928    
C438     C      0.152780000000     0.350380000000     0.532460000000    -0.0368586  
C439     C      0.142980000000     0.325630000000     0.476680000000     0.0516138  
C440     C      0.145640000000     0.332560000000     0.629210000000     0.1108     
C441     C      0.165930000000     0.302720000000     0.958600000000    -0.217906   
C442     C      0.185200000000     0.348510000000     0.182690000000     0.0780185  
C443     C      0.177110000000     0.307510000000     0.186480000000     0.0773342  
C444     C      0.187820000000     0.348320000000     0.146220000000    -0.0926483  
C445     C      0.204900000000     0.341560000000     0.071290000000    -0.0384612  
C446     C      0.204350000000     0.340670000000     0.034510000000    -0.0228032  
C447     C      0.184110000000     0.325570000000     0.090800000000    -0.00186271 
C448     C      0.178990000000     0.306500000000     0.149990000000    -0.0936333  
C449     C      0.182740000000     0.324180000000     0.016480000000    -0.0247088  
C450     C      0.195070000000     0.345870000000     0.957940000000    -0.125309   
C451     C      0.161970000000     0.308180000000     0.036430000000    -0.0219169  
C452     C      0.192500000000     0.345840000000     0.921450000000     0.102125   
C453     C      0.163270000000     0.303410000000     0.922180000000     0.421005   
C454     C      0.162760000000     0.308690000000     0.073130000000    -0.0376185  
C455     C      0.184150000000     0.326970000000     0.129550000000     0.0518616  
C456     C      0.181470000000     0.324200000000     0.977220000000     0.11076    
C457     C      0.937460000000     0.192440000000     0.181050000000    -0.218425   
C458     C      0.083270000000     0.304780000000     0.267080000000     0.0766111  
C459     C      0.082530000000     0.266850000000     0.270800000000     0.0767311  
C460     C      0.059280000000     0.293000000000     0.254240000000    -0.0919035  
C461     C      0.014750000000     0.265820000000     0.207390000000    -0.0401017  
C462     C      0.991160000000     0.253710000000     0.193070000000    -0.0203828  
C463     C      0.021460000000     0.254790000000     0.234100000000     0.000110997
C464     C      0.058610000000     0.254510000000     0.257800000000    -0.0918957  
C465     C      0.973780000000     0.230220000000     0.204900000000    -0.0269095  
C466     C      0.935680000000     0.229650000000     0.184260000000    -0.127362   
C467     C      0.980430000000     0.219160000000     0.231550000000    -0.0199581  
C468     C      0.911770000000     0.216990000000     0.171250000000     0.100144   
C469     C      0.913580000000     0.180290000000     0.167780000000     0.420131   
C470     C      0.003950000000     0.231330000000     0.246070000000    -0.039454   
C471     C      0.046690000000     0.267570000000     0.249050000000     0.0504695  
C472     C      0.948710000000     0.217310000000     0.189730000000     0.11206    
C473     C      0.270540000000     0.397390000000     0.348310000000    -0.219327   
C474     C      0.417100000000     0.431880000000     0.432910000000     0.0763972  
C475     C      0.416820000000     0.469390000000     0.432920000000     0.0768834  
C476     C      0.393010000000     0.419450000000     0.420490000000    -0.0925042  
C477     C      0.348110000000     0.401230000000     0.373810000000    -0.0384375  
C478     C      0.324370000000     0.389580000000     0.359980000000    -0.0233425  
C479     C      0.355170000000     0.419570000000     0.399570000000    -0.00135658 
C480     C      0.392770000000     0.457550000000     0.420420000000    -0.0920213  
C481     C      0.307160000000     0.396080000000     0.371480000000    -0.0263787  
C482     C      0.268960000000     0.358490000000     0.351340000000    -0.127861   
C483     C      0.314170000000     0.414330000000     0.397330000000    -0.0223935  
C484     C      0.244970000000     0.347210000000     0.338610000000     0.0979678  
C485     C      0.246550000000     0.385620000000     0.335440000000     0.416243   
C486     C      0.337860000000     0.425900000000     0.411250000000    -0.0375908  
C487     C      0.380570000000     0.432300000000     0.413800000000     0.0508928  
C488     C      0.281950000000     0.383840000000     0.356720000000     0.110205   
C489     C      0.495910000000     0.966940000000     0.625670000000    -0.217561   
C490     C      0.518290000000     0.013970000000     0.849360000000     0.0796352  
C491     C      0.508970000000     0.972590000000     0.853400000000     0.078975   
C492     C      0.520540000000     0.013490000000     0.812850000000    -0.0923755  
C493     C      0.536520000000     0.005460000000     0.737730000000    -0.0377033  
C494     C      0.535660000000     0.004350000000     0.700970000000    -0.0219658  
C495     C      0.515630000000     0.990190000000     0.757580000000    -0.000849133
C496     C      0.510470000000     0.971310000000     0.816890000000    -0.0928357  
C497     C      0.513680000000     0.988380000000     0.683290000000    -0.0240428  
C498     C      0.526270000000     0.009720000000     0.624560000000    -0.125441   
C499     C      0.492820000000     0.973070000000     0.703580000000    -0.0211059  
C500     C      0.523590000000     0.009640000000     0.588110000000     0.102407   
C501     C      0.493180000000     0.967590000000     0.589260000000     0.421298   
C502     C      0.493890000000     0.973790000000     0.740270000000    -0.0366783  
C503     C      0.516050000000     0.991830000000     0.796310000000     0.0533373  
C504     C      0.512150000000     0.988270000000     0.644050000000     0.111625   
C505     C      0.498580000000     0.016230000000     0.312080000000    -0.218003   
C506     C      0.481180000000     0.972760000000     0.091650000000     0.07754    
C507     C      0.478790000000     0.008940000000     0.085060000000     0.0783251  
C508     C      0.478290000000     0.973200000000     0.127990000000    -0.0917843  
C509     C      0.462570000000     0.972160000000     0.203090000000    -0.0378988  
C510     C      0.463120000000     0.973600000000     0.239780000000    -0.0226558  
C511     C      0.474140000000     0.993520000000     0.182410000000    -0.000554525
C512     C      0.475470000000     0.009730000000     0.121280000000    -0.091423   
C513     C      0.474920000000     0.996460000000     0.256870000000    -0.0248785  
C514     C      0.458790000000     0.980410000000     0.317540000000    -0.125912   
C515     C      0.485550000000     0.017840000000     0.236170000000    -0.0219583  
C516     C      0.462290000000     0.980860000000     0.353870000000     0.100477   
C517     C      0.501410000000     0.016440000000     0.348560000000     0.41925    
C518     C      0.485330000000     0.016400000000     0.199480000000    -0.0372195  
C519     C      0.475630000000     0.991970000000     0.143420000000     0.0513937  
C520     C      0.477260000000     0.997910000000     0.295970000000     0.11069    
C521     C      0.725130000000     0.122370000000     0.088770000000    -0.218876   
C522     C      0.578080000000     0.011610000000     0.004810000000     0.0770511  
C523     C      0.579740000000     0.050030000000     0.002190000000     0.0777079  
C524     C      0.602180000000     0.022870000000     0.017180000000    -0.0915081  
C525     C      0.647410000000     0.049330000000     0.063280000000    -0.0372168  
C526     C      0.671110000000     0.061180000000     0.077280000000    -0.0223332  
C527     C      0.640740000000     0.060560000000     0.036830000000    -0.000602492
C528     C      0.603790000000     0.061840000000     0.014670000000    -0.091694   
C529     C      0.688640000000     0.084590000000     0.065340000000    -0.0254353  
C530     C      0.726610000000     0.084980000000     0.086400000000    -0.126268   
C531     C      0.682050000000     0.095750000000     0.038760000000    -0.0219474  
C532     C      0.750540000000     0.097610000000     0.099390000000     0.0998497  
C533     C      0.749020000000     0.134490000000     0.101980000000     0.417868   
C534     C      0.658430000000     0.083860000000     0.024610000000    -0.0368081  
C535     C      0.615320000000     0.048270000000     0.022570000000     0.0516485  
C536     C      0.713720000000     0.097420000000     0.080500000000     0.111226   
C537     C      0.191390000000     0.830300000000     0.648390000000    -0.218222   
C538     C      0.166280000000     0.852400000000     0.424760000000     0.0806375  
C539     C      0.198720000000     0.843600000000     0.420950000000     0.0788186  
C540     C      0.169010000000     0.854760000000     0.461280000000    -0.0912771  
C541     C      0.193350000000     0.871110000000     0.536510000000    -0.0377292  
C542     C      0.193680000000     0.870270000000     0.573280000000    -0.0218409  
C543     C      0.187560000000     0.850160000000     0.516670000000    -0.000882972
C544     C      0.201500000000     0.845210000000     0.457460000000    -0.0928602  
C545     C      0.187600000000     0.848240000000     0.590960000000    -0.0244341  
C546     C      0.179460000000     0.861070000000     0.649970000000    -0.125042   
C547     C      0.181800000000     0.827300000000     0.570660000000    -0.02129    
C548     C      0.177000000000     0.858320000000     0.686440000000     0.100639   
C549     C      0.188130000000     0.827490000000     0.684800000000     0.418354   
C550     C      0.182070000000     0.828350000000     0.533980000000    -0.0371664  
C551     C      0.186380000000     0.850580000000     0.477930000000     0.0529839  
C552     C      0.186420000000     0.846740000000     0.630230000000     0.110492   
C553     C      0.139970000000     0.791930000000     0.956910000000    -0.218002   
C554     C      0.132470000000     0.813060000000     0.188910000000     0.0803228  
C555     C      0.170800000000     0.814920000000     0.182740000000     0.0782922  
C556     C      0.128560000000     0.809980000000     0.152620000000    -0.0900283  
C557     C      0.132500000000     0.820360000000     0.074420000000    -0.0375099  
C558     C      0.131310000000     0.820530000000     0.037710000000    -0.0224982  
C559     C      0.143540000000     0.808550000000     0.091680000000    -0.000372671
C560     C      0.167620000000     0.812170000000     0.146350000000    -0.0915232  
C561     C      0.141390000000     0.809150000000     0.017210000000    -0.0249663  
C562     C      0.145930000000     0.832610000000     0.961490000000    -0.126061   
C563     C      0.151870000000     0.796810000000     0.034500000000    -0.0220246  
C564     C      0.148310000000     0.834860000000     0.924980000000     0.100256   
C565     C      0.142770000000     0.794840000000     0.920440000000     0.41796    
C566     C      0.152780000000     0.796380000000     0.071200000000    -0.0371823  
C567     C      0.146430000000     0.809930000000     0.130690000000     0.0517315  
C568     C      0.142080000000     0.811100000000     0.978080000000     0.110189   
C569     C      0.392520000000     0.961400000000     0.921920000000    -0.218799   
C570     C      0.245060000000     0.850430000000     0.838900000000     0.0809721  
C571     C      0.244950000000     0.888030000000     0.839710000000     0.0787904  
C572     C      0.268990000000     0.862020000000     0.851920000000    -0.0904189  
C573     C      0.312810000000     0.888620000000     0.900820000000    -0.0381952  
C574     C      0.336470000000     0.900430000000     0.914890000000    -0.0224418  
C575     C      0.306380000000     0.899670000000     0.873870000000    -0.000452925
C576     C      0.268930000000     0.900220000000     0.852540000000    -0.0915614  
C577     C      0.354310000000     0.923520000000     0.902230000000    -0.0258361  
C578     C      0.391240000000     0.922670000000     0.925560000000    -0.127163   
C579     C      0.347860000000     0.934530000000     0.875210000000    -0.0219129  
C580     C      0.415240000000     0.934760000000     0.938280000000     0.0981976  
C581     C      0.416570000000     0.973020000000     0.934570000000     0.416312   
C582     C      0.324160000000     0.922780000000     0.861270000000    -0.0374121  
C583     C      0.281170000000     0.887180000000     0.859140000000     0.052177   
C584     C      0.379620000000     0.935990000000     0.916880000000     0.110008   
C585     C      0.814290000000     0.635790000000     0.795200000000    -0.220627   
C586     C      0.834640000000     0.680150000000     0.016310000000     0.078337   
C587     C      0.795240000000     0.644740000000     0.019930000000     0.0793981  
C588     C      0.833190000000     0.679760000000     0.979690000000    -0.0934123  
C589     C      0.791800000000     0.657750000000     0.904870000000    -0.0380017  
C590     C      0.791380000000     0.655930000000     0.868160000000    -0.0218697  
C591     C      0.811610000000     0.659380000000     0.924100000000    -0.00128239 
C592     C      0.793000000000     0.644100000000     0.983320000000    -0.0916931  
C593     C      0.810490000000     0.655130000000     0.850320000000    -0.0272304  
C594     C      0.808040000000     0.670390000000     0.790670000000    -0.128828   
C595     C      0.830120000000     0.656450000000     0.869640000000    -0.0219913  
C596     C      0.810640000000     0.670120000000     0.754230000000     0.0995319  
C597     C      0.816340000000     0.635660000000     0.758630000000     0.417834   
C598     C      0.830780000000     0.658770000000     0.906160000000    -0.0377373  
C599     C      0.812380000000     0.661370000000     0.962850000000     0.0525038  
C600     C      0.810470000000     0.653470000000     0.811540000000     0.112356   
C601     C      0.844760000000     0.681400000000     0.479170000000    -0.220628   
C602     C      0.858300000000     0.671050000000     0.254050000000     0.0780376  
C603     C      0.818660000000     0.636060000000     0.258430000000     0.0787415  
C604     C      0.861110000000     0.671530000000     0.290530000000    -0.0928823  
C605     C      0.863710000000     0.657790000000     0.368190000000    -0.0384589  
C606     C      0.865130000000     0.659900000000     0.404870000000    -0.0223812  
C607     C      0.843500000000     0.656230000000     0.350170000000    -0.00141148 
C608     C      0.820680000000     0.636310000000     0.295020000000    -0.0923584  
C609     C      0.846620000000     0.661070000000     0.423890000000    -0.0274301  
C610     C      0.850720000000     0.646610000000     0.483360000000    -0.128797   
C611     C      0.826530000000     0.659680000000     0.405790000000    -0.0219573  
C612     C      0.849160000000     0.647420000000     0.519920000000     0.0992855  
C613     C      0.843740000000     0.682050000000     0.515820000000     0.417314   
C614     C      0.824880000000     0.657080000000     0.369300000000    -0.0378424  
C615     C      0.841940000000     0.654380000000     0.311400000000     0.0521472  
C616     C      0.847840000000     0.663310000000     0.462630000000     0.111996   
C617     C      0.603560000000     0.563550000000     0.515930000000    -0.219485   
C618     C      0.749540000000     0.598700000000     0.603300000000     0.0788831  
C619     C      0.749040000000     0.636100000000     0.602880000000     0.0801376  
C620     C      0.725700000000     0.586260000000     0.589860000000    -0.09101    
C621     C      0.670750000000     0.562790000000     0.577800000000    -0.0381485  
C622     C      0.647270000000     0.551030000000     0.563070000000    -0.0223164  
C623     C      0.688380000000     0.586420000000     0.566670000000    -0.000457647
C624     C      0.725220000000     0.624240000000     0.589500000000    -0.0911361  
C625     C      0.640870000000     0.562630000000     0.536900000000    -0.0263107  
C626     C      0.603580000000     0.525400000000     0.513690000000    -0.127742   
C627     C      0.658540000000     0.586180000000     0.525610000000    -0.0218327  
C628     C      0.579700000000     0.514070000000     0.500520000000     0.0984468  
C629     C      0.579630000000     0.551700000000     0.502850000000     0.417063   
C630     C      0.682010000000     0.597920000000     0.540270000000    -0.0377025  
C631     C      0.713340000000     0.599080000000     0.582370000000     0.0519731  
C632     C      0.615740000000     0.550390000000     0.521850000000     0.110723   
C633     C      0.057970000000     0.794510000000     0.757310000000    -0.217951   
C634     C      0.912360000000     0.682370000000     0.670860000000     0.0800946  
C635     C      0.911620000000     0.719650000000     0.670650000000     0.0795124  
C636     C      0.936410000000     0.694440000000     0.683450000000    -0.0913274  
C637     C      0.991460000000     0.727520000000     0.692370000000    -0.034982   
C638     C      0.015100000000     0.739500000000     0.706510000000    -0.0245294  
C639     C      0.973470000000     0.732590000000     0.704960000000    -0.00172081 
C640     C      0.935620000000     0.732270000000     0.683420000000    -0.09153    
C641     C      0.021300000000     0.756760000000     0.733690000000    -0.0236876  
C642     C      0.059500000000     0.757180000000     0.753880000000    -0.125137   
C643     C      0.003270000000     0.761800000000     0.746280000000    -0.0240767  
C644     C      0.083410000000     0.769690000000     0.766930000000     0.101722   
C645     C      0.081900000000     0.806530000000     0.770410000000     0.417879   
C646     C      0.979660000000     0.749880000000     0.732040000000    -0.034463   
C647     C      0.948240000000     0.719650000000     0.690250000000     0.0530405  
C648     C      0.046520000000     0.769610000000     0.748590000000     0.110502   
F1       F      0.660780000000     0.901340000000     0.772760000000    -0.443294   
F2       F      0.908370000000     0.233750000000     0.604410000000    -0.449637   
F3       F      0.093150000000     0.761620000000     0.335820000000    -0.449303   
F4       F      0.571710000000     0.566530000000     0.937030000000    -0.440705   
F5       F      0.167120000000     0.904200000000     0.278540000000    -0.448886   
F6       F      0.496610000000     0.423600000000     0.991890000000    -0.442732   
F7       F      0.706940000000     0.846360000000     0.408980000000    -0.449853   
F8       F      0.634740000000     0.853130000000     0.901910000000    -0.443704   
F9       F      0.752860000000     0.656190000000     0.165070000000    -0.448901   
F10      F      0.569890000000     0.998420000000     0.441300000000    -0.442421   
F11      F      0.955380000000     0.463960000000     0.861120000000    -0.448001   
F12      F      0.953060000000     0.445760000000     0.071530000000    -0.448301   
F13      F      0.996150000000     0.565070000000     0.000570000000    -0.448643   
F14      F      0.374880000000     0.179160000000     0.742070000000    -0.450054   
F15      F      0.288400000000     0.148760000000     0.528820000000    -0.450457   
F16      F      0.420260000000     0.988980000000     0.499290000000    -0.445736   
F17      F      0.088630000000     0.322390000000     0.834210000000    -0.445155   
F18      F      0.240090000000     0.336240000000     0.775300000000    -0.442247   
F19      F      0.451430000000     0.491960000000     0.867560000000    -0.448634   
F20      F      0.550480000000     0.516370000000     0.064250000000    -0.437076   
F21      F      0.806480000000     0.176720000000     0.743080000000    -0.449366   
F22      F      0.825070000000     0.110780000000     0.234410000000    -0.441937   
F23      F      0.190970000000     0.370100000000     0.695220000000    -0.44313    
F24      F      0.147840000000     0.281990000000     0.905730000000    -0.445836   
F25      F      0.903650000000     0.156100000000     0.160040000000    -0.441853   
F26      F      0.236510000000     0.399840000000     0.327880000000    -0.450987   
F27      F      0.477070000000     0.946330000000     0.573030000000    -0.445255   
F28      F      0.522790000000     0.034410000000     0.362330000000    -0.443391   
F29      F      0.759060000000     0.158750000000     0.109340000000    -0.448929   
F30      F      0.193140000000     0.811160000000     0.700790000000    -0.448717   
F31      F      0.140660000000     0.775600000000     0.901430000000    -0.447848   
F32      F      0.428040000000     0.997730000000     0.938860000000    -0.450718   
F33      F      0.820460000000     0.618270000000     0.744310000000    -0.450135   
F34      F      0.840270000000     0.699820000000     0.530350000000    -0.450088   
F35      F      0.568770000000     0.565490000000     0.498010000000    -0.450807   
F36      F      0.092020000000     0.830770000000     0.777960000000    -0.449686   
H1       H      0.762780000000     0.092680000000     0.665980000000     0.0345299  
H2       H      0.733940000000     0.903750000000     0.775120000000     0.0241907  
H3       H      0.727790000000     0.008600000000     0.672060000000     0.0447724  
H4       H      0.767620000000     0.986850000000     0.767080000000     0.0390557  
H5       H      0.755090000000     0.945070000000     0.752410000000     0.0651748  
H6       H      0.788810000000     0.027980000000     0.742070000000     0.043575   
H7       H      0.686700000000     0.945150000000     0.749570000000     0.120745   
H8       H      0.741060000000     0.051210000000     0.688870000000     0.0596689  
H9       H      0.808320000000     0.048850000000     0.686680000000     0.0571569  
H10      H      0.706650000000     0.967370000000     0.696780000000     0.0436835  
H11      H      0.829590000000     0.090380000000     0.664180000000     0.0302321  
H12      H      0.999590000000     0.426040000000     0.501160000000     0.0285506  
H13      H      0.838260000000     0.237350000000     0.607530000000     0.027932   
H14      H      0.949670000000     0.342160000000     0.505760000000     0.0429703  
H15      H      0.888410000000     0.320330000000     0.601010000000     0.040034   
H16      H      0.858800000000     0.278840000000     0.585460000000     0.0662677  
H17      H      0.908740000000     0.361720000000     0.576890000000     0.0431492  
H18      H      0.926680000000     0.277790000000     0.581930000000     0.119156   
H19      H      0.979380000000     0.384360000000     0.523270000000     0.0567817  
H20      H      0.910450000000     0.383470000000     0.522280000000     0.0562921  
H21      H      0.929180000000     0.300670000000     0.529620000000     0.0424067  
H22      H      0.931200000000     0.425220000000     0.500560000000     0.0283611  
H23      H      0.070630000000     0.571250000000     0.443230000000     0.0280967  
H24      H      0.163160000000     0.757900000000     0.330720000000     0.0236242  
H25      H      0.103680000000     0.654260000000     0.434500000000     0.0421146  
H26      H      0.062210000000     0.675440000000     0.341240000000     0.0421414  
H27      H      0.142740000000     0.716370000000     0.352990000000     0.0647549  
H28      H      0.041730000000     0.634200000000     0.365930000000     0.0423079  
H29      H      0.075210000000     0.717870000000     0.359490000000     0.118622   
H30      H      0.091320000000     0.612640000000     0.420370000000     0.0554767  
H31      H      0.022330000000     0.611680000000     0.418410000000     0.0558114  
H32      H      0.124260000000     0.695360000000     0.409350000000     0.0383095  
H33      H      0.002070000000     0.570020000000     0.440350000000     0.027657   
H34      H      0.663460000000     0.758930000000     0.833570000000     0.0283952  
H35      H      0.502070000000     0.570920000000     0.942130000000     0.0306164  
H36      H      0.613270000000     0.674930000000     0.838690000000     0.0438039  
H37      H      0.552560000000     0.653830000000     0.934560000000     0.0393846  
H38      H      0.522730000000     0.612410000000     0.920060000000     0.0674746  
H39      H      0.572960000000     0.695110000000     0.910020000000     0.0438112  
H40      H      0.590190000000     0.610610000000     0.914710000000     0.120885   
H41      H      0.643280000000     0.717350000000     0.856150000000     0.0568847  
H42      H      0.574310000000     0.716350000000     0.854700000000     0.0582527  
H43      H      0.592660000000     0.633530000000     0.862840000000     0.043792   
H44      H      0.594990000000     0.757960000000     0.832430000000     0.0338124  
H45      H      0.263610000000     0.089960000000     0.163980000000     0.028357   
H46      H      0.237980000000     0.902160000000     0.271920000000     0.0238729  
H47      H      0.232790000000     0.007560000000     0.170840000000     0.0427508  
H48      H      0.273930000000     0.986770000000     0.265080000000     0.0389025  
H49      H      0.259880000000     0.943380000000     0.248380000000     0.0649951  
H50      H      0.294480000000     0.028000000000     0.240110000000     0.0422893  
H51      H      0.193630000000     0.947370000000     0.253530000000     0.119567   
H52      H      0.243940000000     0.048520000000     0.186240000000     0.0566329  
H53      H      0.313980000000     0.051660000000     0.188180000000     0.055632   
H54      H      0.212180000000     0.966580000000     0.196250000000     0.042649   
H55      H      0.333270000000     0.093510000000     0.166760000000     0.0283582  
H56      H      0.399750000000     0.238180000000     0.106870000000     0.0287426  
H57      H      0.426040000000     0.426180000000     0.998790000000     0.0277632  
H58      H      0.430670000000     0.320550000000     0.099890000000     0.0429602  
H59      H      0.389630000000     0.341410000000     0.005590000000     0.0401272  
H60      H      0.403930000000     0.384940000000     0.022240000000     0.0661907  
H61      H      0.368970000000     0.300210000000     0.030670000000     0.0426485  
H62      H      0.469900000000     0.380450000000     0.016870000000     0.12146    
H63      H      0.419460000000     0.279590000000     0.084550000000     0.0571224  
H64      H      0.349460000000     0.276540000000     0.082590000000     0.0554207  
H65      H      0.451390000000     0.361480000000     0.074350000000     0.044046   
H66      H      0.330130000000     0.234700000000     0.104070000000     0.0278461  
H67      H      0.697250000000     0.822410000000     0.699050000000     0.0286961  
H68      H      0.627240000000     0.786490000000     0.405110000000     0.0237343  
H69      H      0.685050000000     0.794630000000     0.586400000000     0.0428957  
H70      H      0.635300000000     0.821350000000     0.518190000000     0.0407933  
H71      H      0.625390000000     0.781990000000     0.468570000000     0.0672333  
H72      H      0.634120000000     0.821930000000     0.582140000000     0.0440602  
H73      H      0.701080000000     0.838240000000     0.475710000000     0.12068    
H74      H      0.697160000000     0.818510000000     0.635980000000     0.0565379  
H75      H      0.621350000000     0.800470000000     0.633820000000     0.057568   
H76      H      0.687330000000     0.795890000000     0.522230000000     0.0433204  
H77      H      0.622730000000     0.806250000000     0.696790000000     0.0329441  
H78      H      0.691890000000     0.875920000000     0.202050000000     0.0302119  
H79      H      0.700360000000     0.842120000000     0.911910000000     0.0237134  
H80      H      0.664540000000     0.881950000000     0.086070000000     0.0441695  
H81      H      0.666320000000     0.814720000000     0.020410000000     0.0390488  
H82      H      0.700210000000     0.844930000000     0.975390000000     0.0659403  
H83      H      0.662830000000     0.812550000000     0.084520000000     0.0429572  
H84      H      0.637980000000     0.855720000000     0.969460000000     0.120355   
H85      H      0.693270000000     0.880830000000     0.138400000000     0.0581149  
H86      H      0.628860000000     0.809550000000     0.129160000000     0.0572327  
H87      H      0.667580000000     0.883910000000     0.021520000000     0.0433503  
H88      H      0.627590000000     0.805290000000     0.192650000000     0.0282501  
H89      H      0.663570000000     0.757210000000     0.271730000000     0.0290098  
H90      H      0.824440000000     0.728450000000     0.165380000000     0.024167   
H91      H      0.703780000000     0.733770000000     0.196470000000     0.0431388  
H92      H      0.785120000000     0.752610000000     0.242290000000     0.0392725  
H93      H      0.804580000000     0.750250000000     0.187280000000     0.0654825  
H94      H      0.764690000000     0.773290000000     0.267520000000     0.0443109  
H95      H      0.735620000000     0.682570000000     0.188730000000     0.119867   
H96      H      0.683820000000     0.735810000000     0.249580000000     0.057288   
H97      H      0.753000000000     0.803400000000     0.253280000000     0.0578552  
H98      H      0.724150000000     0.712970000000     0.171480000000     0.0431864  
H99      H      0.732310000000     0.824130000000     0.276160000000     0.0339478  
H100     H      0.661700000000     0.898540000000     0.334860000000     0.0328186  
H101     H      0.499410000000     0.925150000000     0.439570000000     0.0303577  
H102     H      0.620970000000     0.922190000000     0.408690000000     0.0448174  
H103     H      0.540070000000     0.903600000000     0.361380000000     0.0391662  
H104     H      0.520160000000     0.904510000000     0.416870000000     0.0674189  
H105     H      0.560800000000     0.883190000000     0.336270000000     0.0422459  
H106     H      0.588210000000     0.973130000000     0.416770000000     0.121362   
H107     H      0.641470000000     0.920070000000     0.356480000000     0.0587824  
H108     H      0.572010000000     0.852890000000     0.350570000000     0.0558653  
H109     H      0.600320000000     0.942780000000     0.433460000000     0.0443469  
H110     H      0.592710000000     0.832040000000     0.328130000000     0.0282361  
H111     H      0.037520000000     0.509840000000     0.580470000000     0.028407   
H112     H      0.022520000000     0.539430000000     0.871380000000     0.0295645  
H113     H      0.002820000000     0.481180000000     0.688390000000     0.044465   
H114     H      0.997410000000     0.546330000000     0.754390000000     0.0409107  
H115     H      0.025440000000     0.545170000000     0.808040000000     0.0684547  
H116     H      0.001840000000     0.549240000000     0.690010000000     0.0440481  
H117     H      0.962170000000     0.473580000000     0.795150000000     0.121165   
H118     H      0.036780000000     0.512230000000     0.644160000000     0.0570406  
H119     H      0.973340000000     0.521090000000     0.637180000000     0.0575984  
H120     H      0.997920000000     0.478040000000     0.752320000000     0.0433137  
H121     H      0.974180000000     0.518150000000     0.573470000000     0.0283213  
H122     H      0.958130000000     0.473360000000     0.366090000000     0.0278332  
H123     H      0.032060000000     0.507090000000     0.078650000000     0.0268133  
H124     H      0.967960000000     0.488050000000     0.251180000000     0.0424105  
H125     H      0.019650000000     0.460670000000     0.189930000000     0.0397649  
H126     H      0.032200000000     0.503280000000     0.142250000000     0.0677226  
H127     H      0.018650000000     0.460420000000     0.254200000000     0.0413926  
H128     H      0.957060000000     0.445390000000     0.138800000000     0.121186   
H129     H      0.955870000000     0.467010000000     0.303250000000     0.0560457  
H130     H      0.031650000000     0.484920000000     0.303310000000     0.0549676  
H131     H      0.967880000000     0.486480000000     0.187230000000     0.0439857  
H132     H      0.032630000000     0.489400000000     0.366410000000     0.0277085  
H133     H      0.896330000000     0.655430000000     0.107340000000     0.0289449  
H134     H      0.922970000000     0.494580000000     0.996650000000     0.0340638  
H135     H      0.929380000000     0.604640000000     0.102320000000     0.0436282  
H136     H      0.889240000000     0.544120000000     0.006370000000     0.0407267  
H137     H      0.901720000000     0.514580000000     0.019720000000     0.0689405  
H138     H      0.868340000000     0.564260000000     0.031900000000     0.0440067  
H139     H      0.970140000000     0.582780000000     0.024070000000     0.119806   
H140     H      0.917160000000     0.634700000000     0.084830000000     0.0574477  
H141     H      0.848930000000     0.566150000000     0.087460000000     0.057622   
H142     H      0.950170000000     0.584340000000     0.077150000000     0.0432761  
H143     H      0.828530000000     0.587450000000     0.109680000000     0.0305293  
H144     H      0.364880000000     0.156330000000     0.031140000000     0.0288003  
H145     H      0.294350000000     0.121710000000     0.736620000000     0.0245159  
H146     H      0.352970000000     0.128510000000     0.918420000000     0.043064   
H147     H      0.301130000000     0.152870000000     0.850730000000     0.0398157  
H148     H      0.291960000000     0.116310000000     0.800000000000     0.0664935  
H149     H      0.300120000000     0.153420000000     0.914660000000     0.0418871  
H150     H      0.368400000000     0.170260000000     0.808500000000     0.120346   
H151     H      0.364610000000     0.152250000000     0.968050000000     0.0567224  
H152     H      0.288270000000     0.132350000000     0.966540000000     0.0552662  
H153     H      0.355050000000     0.129810000000     0.854260000000     0.0433831  
H154     H      0.289810000000     0.138370000000     0.029420000000     0.0277577  
H155     H      0.298480000000     0.171830000000     0.239760000000     0.0278478  
H156     H      0.368890000000     0.206310000000     0.534320000000     0.023977   
H157     H      0.310340000000     0.199560000000     0.352520000000     0.0413213  
H158     H      0.362150000000     0.175150000000     0.420170000000     0.039395   
H159     H      0.371300000000     0.211730000000     0.470950000000     0.0656102  
H160     H      0.363200000000     0.174650000000     0.356250000000     0.0415013  
H161     H      0.294890000000     0.157690000000     0.462390000000     0.119647   
H162     H      0.298720000000     0.175870000000     0.302860000000     0.0554982  
H163     H      0.375060000000     0.195750000000     0.304390000000     0.0547082  
H164     H      0.308230000000     0.198210000000     0.416680000000     0.0417878  
H165     H      0.373540000000     0.189780000000     0.241500000000     0.0276439  
H166     H      0.329870000000     0.092140000000     0.602330000000     0.0324806  
H167     H      0.490540000000     0.062420000000     0.499130000000     0.0287911  
H168     H      0.377720000000     0.055160000000     0.598010000000     0.0447577  
H169     H      0.441090000000     0.095820000000     0.505700000000     0.0391379  
H170     H      0.469830000000     0.083170000000     0.521250000000     0.06651    
H171     H      0.421100000000     0.117070000000     0.530360000000     0.0428295  
H172     H      0.401720000000     0.014530000000     0.521820000000     0.119637   
H173     H      0.349160000000     0.069840000000     0.579640000000     0.0585469  
H174     H      0.419640000000     0.135580000000     0.587360000000     0.0581567  
H175     H      0.398000000000     0.033990000000     0.573850000000     0.0440157  
H176     H      0.399890000000     0.157390000000     0.609780000000     0.0334234  
H177     H      0.993960000000     0.420160000000     0.940960000000     0.0388517  
H178     H      0.157530000000     0.396990000000     0.832360000000     0.0289082  
H179     H      0.034460000000     0.396010000000     0.867290000000     0.0454539  
H180     H      0.116770000000     0.417400000000     0.912050000000     0.039112   
H181     H      0.135990000000     0.416720000000     0.855530000000     0.0669548  
H182     H      0.095520000000     0.437160000000     0.937500000000     0.0426963  
H183     H      0.069430000000     0.346820000000     0.859030000000     0.120629   
H184     H      0.014420000000     0.398740000000     0.919590000000     0.0595919  
H185     H      0.083410000000     0.466580000000     0.922780000000     0.0565925  
H186     H      0.055630000000     0.376010000000     0.842230000000     0.044099   
H187     H      0.062550000000     0.487260000000     0.945000000000     0.0301978  
H188     H      0.333280000000     0.235700000000     0.669350000000     0.0322358  
H189     H      0.170610000000     0.262170000000     0.772360000000     0.0304809  
H190     H      0.285240000000     0.272590000000     0.675280000000     0.044456   
H191     H      0.221310000000     0.230270000000     0.766400000000     0.0400678  
H192     H      0.192230000000     0.242410000000     0.750180000000     0.0672953  
H193     H      0.241830000000     0.209700000000     0.741300000000     0.0431851  
H194     H      0.259660000000     0.311660000000     0.752510000000     0.121074   
H195     H      0.313880000000     0.257740000000     0.692700000000     0.0585836  
H196     H      0.243480000000     0.192010000000     0.683810000000     0.0581699  
H197     H      0.264430000000     0.293110000000     0.699950000000     0.0446013  
H198     H      0.263320000000     0.170490000000     0.660800000000     0.0335016  
H199     H      0.473380000000     0.509760000000     0.572190000000     0.0319883  
H200     H      0.511540000000     0.472450000000     0.859420000000     0.0336832  
H201     H      0.489690000000     0.515990000000     0.686470000000     0.0445465  
H202     H      0.464350000000     0.438020000000     0.749770000000     0.0422535  
H203     H      0.506770000000     0.467790000000     0.795980000000     0.0704996  
H204     H      0.462940000000     0.437860000000     0.685520000000     0.0429025  
H205     H      0.449970000000     0.486730000000     0.800400000000     0.122198   
H206     H      0.467830000000     0.506250000000     0.635180000000     0.0582728  
H207     H      0.486380000000     0.448750000000     0.635440000000     0.0560306  
H208     H      0.489260000000     0.515390000000     0.750450000000     0.0450706  
H209     H      0.490030000000     0.451660000000     0.572220000000     0.0282705  
H210     H      0.518980000000     0.538890000000     0.365200000000     0.0330609  
H211     H      0.474860000000     0.507190000000     0.078170000000     0.025096   
H212     H      0.552040000000     0.543380000000     0.250160000000     0.0456351  
H213     H      0.482370000000     0.477000000000     0.184580000000     0.0397745  
H214     H      0.478650000000     0.508620000000     0.141590000000     0.0663412  
H215     H      0.484070000000     0.474430000000     0.248620000000     0.042699   
H216     H      0.550790000000     0.517630000000     0.131970000000     0.123558   
H217     H      0.522970000000     0.543230000000     0.301630000000     0.0583199  
H218     H      0.513880000000     0.470850000000     0.294360000000     0.0576847  
H219     H      0.550560000000     0.545710000000     0.185700000000     0.0447591  
H220     H      0.510420000000     0.467150000000     0.357960000000     0.0282574  
H221     H      0.850860000000     0.207340000000     0.036500000000     0.0340878  
H222     H      0.881430000000     0.183430000000     0.735700000000     0.0298116  
H223     H      0.834790000000     0.202310000000     0.921080000000     0.0458095  
H224     H      0.873620000000     0.164910000000     0.850100000000     0.0395062  
H225     H      0.887250000000     0.188280000000     0.798590000000     0.0680375  
H226     H      0.875170000000     0.163530000000     0.913770000000     0.0444319  
H227     H      0.815640000000     0.180880000000     0.808870000000     0.119765   
H228     H      0.856820000000     0.214550000000     0.973800000000     0.0594685  
H229     H      0.849380000000     0.142990000000     0.960930000000     0.0582607  
H230     H      0.835050000000     0.205500000000     0.857460000000     0.0439927  
H231     H      0.844730000000     0.136950000000     0.023740000000     0.0339332  
H232     H      0.850290000000     0.138150000000     0.529220000000     0.0321113  
H233     H      0.807370000000     0.172140000000     0.243140000000     0.0291109  
H234     H      0.853960000000     0.151940000000     0.414030000000     0.0442016  
H235     H      0.774680000000     0.126490000000     0.354640000000     0.0426868  
H236     H      0.803860000000     0.168060000000     0.306730000000     0.0688013  
H237     H      0.776180000000     0.126430000000     0.418870000000     0.0440481  
H238     H      0.821190000000     0.110130000000     0.301780000000     0.123051   
H239     H      0.845420000000     0.131500000000     0.466470000000     0.0581054  
H240     H      0.788630000000     0.151020000000     0.467710000000     0.0570638  
H241     H      0.851680000000     0.150140000000     0.350130000000     0.0451005  
H242     H      0.792880000000     0.155770000000     0.530700000000     0.030474   
H243     H      0.144620000000     0.356100000000     0.402180000000     0.0319745  
H244     H      0.116550000000     0.301380000000     0.702900000000     0.0306552  
H245     H      0.161650000000     0.367190000000     0.517350000000     0.0445992  
H246     H      0.123940000000     0.291030000000     0.588460000000     0.039105   
H247     H      0.110440000000     0.300490000000     0.640130000000     0.0674262  
H248     H      0.121890000000     0.288120000000     0.524830000000     0.0425032  
H249     H      0.181560000000     0.365150000000     0.629460000000     0.12068    
H250     H      0.139190000000     0.357320000000     0.465030000000     0.0572616  
H251     H      0.147210000000     0.293450000000     0.477120000000     0.0563521  
H252     H      0.161850000000     0.370090000000     0.580990000000     0.0432089  
H253     H      0.151310000000     0.292090000000     0.414200000000     0.0285972  
H254     H      0.172740000000     0.291120000000     0.201350000000     0.0282166  
H255     H      0.203070000000     0.363190000000     0.907910000000     0.0284749  
H256     H      0.146410000000     0.296390000000     0.087770000000     0.0450224  
H257     H      0.220900000000     0.352940000000     0.020330000000     0.038996   
H258     H      0.207100000000     0.363080000000     0.970860000000     0.0661305  
H259     H      0.221600000000     0.354640000000     0.084530000000     0.0440427  
H260     H      0.155700000000     0.285310000000     0.972000000000     0.119843   
H261     H      0.176140000000     0.289730000000     0.137790000000     0.0578124  
H262     H      0.191800000000     0.364460000000     0.131040000000     0.0585471  
H263     H      0.144790000000     0.295620000000     0.023840000000     0.0440094  
H264     H      0.187550000000     0.365190000000     0.194600000000     0.0325768  
H265     H      0.091100000000     0.256000000000     0.276760000000     0.0285795  
H266     H      0.902320000000     0.227300000000     0.167980000000     0.0258616  
H267     H      0.008290000000     0.222440000000     0.267000000000     0.0438277  
H268     H      0.986650000000     0.262580000000     0.172280000000     0.0391367  
H269     H      0.943680000000     0.248880000000     0.190790000000     0.0661761  
H270     H      0.027850000000     0.283660000000     0.197060000000     0.0427727  
H271     H      0.947130000000     0.182370000000     0.184410000000     0.121664   
H272     H      0.049770000000     0.234880000000     0.253870000000     0.056725   
H273     H      0.050670000000     0.303830000000     0.248530000000     0.0554187  
H274     H      0.967300000000     0.201220000000     0.241590000000     0.0444162  
H275     H      0.092350000000     0.324500000000     0.270380000000     0.0289424  
H276     H      0.425590000000     0.488990000000     0.437250000000     0.0298576  
H277     H      0.235560000000     0.327470000000     0.335370000000     0.0232791  
H278     H      0.342520000000     0.439630000000     0.431480000000     0.043784   
H279     H      0.319620000000     0.375800000000     0.339790000000     0.0373399  
H280     H      0.277040000000     0.347280000000     0.357700000000     0.0642681  
H281     H      0.361070000000     0.396160000000     0.363790000000     0.0410364  
H282     H      0.280150000000     0.417120000000     0.351500000000     0.118565   
H283     H      0.384010000000     0.468310000000     0.415260000000     0.0568879  
H284     H      0.384180000000     0.399850000000     0.416330000000     0.055131   
H285     H      0.301210000000     0.419450000000     0.407180000000     0.0431583  
H286     H      0.426060000000     0.421220000000     0.437510000000     0.027738   
H287     H      0.504250000000     0.956150000000     0.868380000000     0.0300099  
H288     H      0.534630000000     0.026840000000     0.574410000000     0.0285991  
H289     H      0.477480000000     0.962030000000     0.755190000000     0.0464794  
H290     H      0.552270000000     0.016060000000     0.686520000000     0.0399705  
H291     H      0.538840000000     0.026820000000     0.637300000000     0.0667222  
H292     H      0.553520000000     0.018150000000     0.750680000000     0.0452941  
H293     H      0.485210000000     0.949670000000     0.639260000000     0.120721   
H294     H      0.506990000000     0.954290000000     0.804790000000     0.0602552  
H295     H      0.524860000000     0.029680000000     0.797550000000     0.0597775  
H296     H      0.475390000000     0.960940000000     0.691270000000     0.0446895  
H297     H      0.521260000000     0.030910000000     0.861180000000     0.032229   
H298     H      0.478910000000     0.023260000000     0.069030000000     0.0332523  
H299     H      0.447600000000     0.966660000000     0.369330000000     0.0296536  
H300     H      0.494640000000     0.033290000000     0.184620000000     0.0437086  
H301     H      0.454920000000     0.956680000000     0.254660000000     0.0380651  
H302     H      0.441700000000     0.966240000000     0.306520000000     0.0659547  
H303     H      0.453320000000     0.954200000000     0.190990000000     0.041684   
H304     H      0.513550000000     0.029990000000     0.296570000000     0.120637   
H305     H      0.472930000000     0.024280000000     0.131760000000     0.0573542  
H306     H      0.478940000000     0.959250000000     0.143870000000     0.0558927  
H307     H      0.494380000000     0.035800000000     0.248260000000     0.0428219  
H308     H      0.483580000000     0.958110000000     0.081060000000     0.0285799  
H309     H      0.571520000000     0.061270000000     0.996840000000     0.0303125  
H310     H      0.759890000000     0.087240000000     0.102990000000     0.028969   
H311     H      0.654110000000     0.092880000000     0.003830000000     0.0441979  
H312     H      0.675560000000     0.052220000000     0.097990000000     0.0401753  
H313     H      0.718490000000     0.065680000000     0.080220000000     0.0669399  
H314     H      0.634180000000     0.031570000000     0.073730000000     0.0430274  
H315     H      0.715580000000     0.132530000000     0.085150000000     0.120222   
H316     H      0.613060000000     0.081460000000     0.018830000000     0.0578088  
H317     H      0.610460000000     0.011670000000     0.022330000000     0.056927   
H318     H      0.695280000000     0.113610000000     0.028580000000     0.043943   
H319     H      0.568570000000     0.991900000000     0.001260000000     0.0295857  
H320     H      0.210570000000     0.839030000000     0.406060000000     0.0292846  
H321     H      0.171070000000     0.869490000000     0.700360000000     0.0299101  
H322     H      0.177280000000     0.811900000000     0.519060000000     0.04573    
H323     H      0.198750000000     0.886930000000     0.587730000000     0.0392404  
H324     H      0.175080000000     0.873850000000     0.637410000000     0.0669337  
H325     H      0.197750000000     0.888160000000     0.523540000000     0.0455993  
H326     H      0.197740000000     0.819460000000     0.634640000000     0.119292   
H327     H      0.215180000000     0.841950000000     0.469660000000     0.0594253  
H328     H      0.156990000000     0.858910000000     0.476500000000     0.0611256  
H329     H      0.176400000000     0.809830000000     0.582960000000     0.04322    
H330     H      0.152170000000     0.855120000000     0.412850000000     0.0369562  
H331     H      0.187680000000     0.817010000000     0.193520000000     0.0286571  
H332     H      0.151820000000     0.852110000000     0.913580000000     0.0272013  
H333     H      0.161020000000     0.786700000000     0.083480000000     0.043418   
H334     H      0.122700000000     0.829850000000     0.025430000000     0.0392867  
H335     H      0.147970000000     0.848100000000     0.976600000000     0.0655249  
H336     H      0.125370000000     0.830150000000     0.089170000000     0.0437656  
H337     H      0.136270000000     0.774670000000     0.968440000000     0.119641   
H338     H      0.182150000000     0.812600000000     0.130610000000     0.056003   
H339     H      0.111640000000     0.807780000000     0.141900000000     0.0589358  
H340     H      0.160080000000     0.788040000000     0.019750000000     0.0429675  
H341     H      0.118320000000     0.813350000000     0.204770000000     0.0373326  
H342     H      0.236060000000     0.898790000000     0.835440000000     0.0302205  
H343     H      0.423510000000     0.923620000000     0.944130000000     0.0240274  
H344     H      0.319860000000     0.931620000000     0.840210000000     0.044605   
H345     H      0.340670000000     0.891580000000     0.936050000000     0.0381909  
H346     H      0.382090000000     0.903010000000     0.921800000000     0.0651483  
H347     H      0.299410000000     0.871000000000     0.911470000000     0.0436415  
H348     H      0.384040000000     0.972360000000     0.916300000000     0.118212   
H349     H      0.277620000000     0.919670000000     0.857990000000     0.057241   
H350     H      0.277920000000     0.851320000000     0.856150000000     0.0596903  
H351     H      0.361230000000     0.952100000000     0.864380000000     0.0429956  
H352     H      0.236300000000     0.830900000000     0.833890000000     0.0379211  
H353     H      0.780130000000     0.630610000000     0.034870000000     0.0352073  
H354     H      0.809230000000     0.683990000000     0.739130000000     0.0246938  
H355     H      0.846140000000     0.659790000000     0.920490000000     0.0444324  
H356     H      0.776060000000     0.654910000000     0.853730000000     0.0405642  
H357     H      0.805080000000     0.684350000000     0.802510000000     0.0663281  
H358     H      0.776840000000     0.658210000000     0.918220000000     0.0454568  
H359     H      0.815980000000     0.622260000000     0.810720000000     0.120689   
H360     H      0.776620000000     0.629610000000     0.971080000000     0.0611319  
H361     H      0.848420000000     0.693580000000     0.964580000000     0.0573824  
H362     H      0.845160000000     0.656070000000     0.856410000000     0.0435479  
H363     H      0.851290000000     0.694470000000     0.028270000000     0.0287939  
H364     H      0.801720000000     0.621990000000     0.246810000000     0.0337469  
H365     H      0.850800000000     0.633650000000     0.534940000000     0.0244655  
H366     H      0.809220000000     0.656120000000     0.355920000000     0.0454555  
H367     H      0.880790000000     0.660950000000     0.418340000000     0.0396207  
H368     H      0.853200000000     0.632380000000     0.471370000000     0.0659047  
H369     H      0.878270000000     0.657150000000     0.353930000000     0.043496   
H370     H      0.842800000000     0.694810000000     0.463750000000     0.120296   
H371     H      0.805570000000     0.622620000000     0.310440000000     0.0587424  
H372     H      0.877810000000     0.685790000000     0.302400000000     0.0584737  
H373     H      0.811940000000     0.660330000000     0.419960000000     0.0434911  
H374     H      0.873340000000     0.685060000000     0.238840000000     0.0291324  
H375     H      0.757560000000     0.655640000000     0.607640000000     0.0338815  
H376     H      0.571020000000     0.494640000000     0.494850000000     0.0236956  
H377     H      0.695280000000     0.615910000000     0.530590000000     0.0447825  
H378     H      0.633970000000     0.533030000000     0.572700000000     0.0387292  
H379     H      0.612470000000     0.514610000000     0.517320000000     0.065129   
H380     H      0.674940000000     0.553540000000     0.598380000000     0.0436487  
H381     H      0.612280000000     0.582890000000     0.522120000000     0.11897    
H382     H      0.716190000000     0.634790000000     0.584820000000     0.0586041  
H383     H      0.717300000000     0.566820000000     0.584540000000     0.0572234  
H384     H      0.654310000000     0.595460000000     0.505110000000     0.0428701  
H385     H      0.758560000000     0.588140000000     0.608140000000     0.0322652  
H386     H      0.902490000000     0.730130000000     0.665980000000     0.0326348  
H387     H      0.092710000000     0.759240000000     0.770330000000     0.0324938  
H388     H      0.966100000000     0.753900000000     0.742700000000     0.0439146  
H389     H      0.028630000000     0.735490000000     0.695740000000     0.0401042  
H390     H      0.051240000000     0.737810000000     0.748150000000     0.0678322  
H391     H      0.987360000000     0.714530000000     0.671210000000     0.0432337  
H392     H      0.048680000000     0.804890000000     0.753320000000     0.119024   
H393     H      0.944230000000     0.751840000000     0.687820000000     0.0588208  
H394     H      0.945430000000     0.683930000000     0.688610000000     0.0585404  
H395     H      0.007280000000     0.774690000000     0.767540000000     0.0436616  
H396     H      0.903810000000     0.662790000000     0.666460000000     0.0337343  
N1       N      0.698180000000     0.900240000000     0.774720000000    -0.246516   
N2       N      0.797840000000     0.094720000000     0.663690000000    -0.197006   
N3       N      0.870190000000     0.233280000000     0.606800000000    -0.24674    
N4       N      0.966970000000     0.428830000000     0.499500000000    -0.198422   
N5       N      0.131270000000     0.762040000000     0.332420000000    -0.247482   
N6       N      0.034780000000     0.567440000000     0.443170000000    -0.198129   
N7       N      0.533750000000     0.566450000000     0.940350000000    -0.245395   
N8       N      0.630800000000     0.761640000000     0.831610000000    -0.197415   
N9       N      0.203230000000     0.900740000000     0.275770000000    -0.247449   
N10      N      0.299930000000     0.094920000000     0.163940000000    -0.198285   
N11      N      0.460680000000     0.427360000000     0.994870000000    -0.246259   
N12      N      0.363450000000     0.233260000000     0.106920000000    -0.198247   
N13      N      0.664830000000     0.815480000000     0.403720000000    -0.24809    
N14      N      0.660160000000     0.815070000000     0.702530000000    -0.197745   
N15      N      0.668890000000     0.846430000000     0.903920000000    -0.247134   
N16      N      0.659900000000     0.840090000000     0.202020000000    -0.198293   
N17      N      0.791770000000     0.693080000000     0.164540000000    -0.247312   
N18      N      0.696360000000     0.792300000000     0.275300000000    -0.197271   
N19      N      0.531520000000     0.960950000000     0.441140000000    -0.245551   
N20      N      0.628770000000     0.863650000000     0.330160000000    -0.197837   
N21      N      0.990960000000     0.503260000000     0.869870000000    -0.246553   
N22      N      0.005610000000     0.513300000000     0.572300000000    -0.198751   
N23      N      0.994630000000     0.478560000000     0.071970000000    -0.246756   
N24      N      0.995620000000     0.482160000000     0.370850000000    -0.198286   
N25      N      0.958760000000     0.526690000000     0.997920000000    -0.245906   
N26      N      0.860840000000     0.623050000000     0.109870000000    -0.198193   
N27      N      0.332370000000     0.149630000000     0.736000000000    -0.247691   
N28      N      0.327520000000     0.148120000000     0.034890000000    -0.198288   
N29      N      0.330890000000     0.178340000000     0.534910000000    -0.24779    
N30      N      0.335830000000     0.180040000000     0.236020000000    -0.198388   
N31      N      0.458520000000     0.026550000000     0.498460000000    -0.24645    
N32      N      0.363390000000     0.126470000000     0.607400000000    -0.196808   
N33      N      0.126230000000     0.360620000000     0.832510000000    -0.246457   
N34      N      0.026670000000     0.455330000000     0.944300000000    -0.196241   
N35      N      0.202210000000     0.298290000000     0.774550000000    -0.245651   
N36      N      0.299810000000     0.201400000000     0.663730000000    -0.19686    
N37      N      0.483620000000     0.482220000000     0.866570000000    -0.246189   
N38      N      0.482480000000     0.481240000000     0.567600000000    -0.197786   
N39      N      0.510100000000     0.510700000000     0.068290000000    -0.246241   
N40      N      0.513980000000     0.502540000000     0.366240000000    -0.197618   
N41      N      0.845530000000     0.179560000000     0.735860000000    -0.246745   
N42      N      0.847060000000     0.171510000000     0.034760000000    -0.19646    
N43      N      0.816330000000     0.143650000000     0.235710000000    -0.246226   
N44      N      0.822170000000     0.147740000000     0.534560000000    -0.197411   
N45      N      0.152220000000     0.333640000000     0.702580000000    -0.246104   
N46      N      0.148670000000     0.324200000000     0.403540000000    -0.197508   
N47      N      0.176200000000     0.324980000000     0.903750000000    -0.246649   
N48      N      0.179490000000     0.328120000000     0.202610000000    -0.19779    
N49      N      0.900590000000     0.192420000000     0.163410000000    -0.246377   
N50      N      0.094920000000     0.291850000000     0.274960000000    -0.198081   
N51      N      0.233640000000     0.360540000000     0.331070000000    -0.247408   
N52      N      0.429020000000     0.456710000000     0.438770000000    -0.198026   
N53      N      0.506700000000     0.988960000000     0.570610000000    -0.246522   
N54      N      0.512150000000     0.993540000000     0.869430000000    -0.197465   
N55      N      0.483600000000     0.998440000000     0.369330000000    -0.246245   
N56      N      0.481970000000     0.990790000000     0.070410000000    -0.197436   
N57      N      0.761870000000     0.122270000000     0.106760000000    -0.24644    
N58      N      0.566840000000     0.025060000000     0.997670000000    -0.197843   
N59      N      0.180540000000     0.841150000000     0.703690000000    -0.247262   
N60      N      0.180750000000     0.846450000000     0.404810000000    -0.196904   
N61      N      0.147460000000     0.816440000000     0.904580000000    -0.246777   
N62      N      0.153600000000     0.815880000000     0.203810000000    -0.196611   
N63      N      0.428040000000     0.959800000000     0.942310000000    -0.247532   
N64      N      0.233000000000     0.863260000000     0.833240000000    -0.196275   
N65      N      0.815250000000     0.653230000000     0.738270000000    -0.247904   
N66      N      0.816140000000     0.662320000000     0.036250000000    -0.197685   
N67      N      0.845100000000     0.664610000000     0.536100000000    -0.248035   
N68      N      0.837050000000     0.653730000000     0.238170000000    -0.197865   
N69      N      0.567590000000     0.526960000000     0.495570000000    -0.247562   
N70      N      0.761270000000     0.623520000000     0.609250000000    -0.196723   
N71      N      0.094730000000     0.794250000000     0.774810000000    -0.245822   
N72      N      0.899950000000     0.694820000000     0.664870000000    -0.196671   
Ni1      Ni     0.830820000000     0.640370000000     0.638220000000     1.0206     
Ni2      Ni     0.830280000000     0.677840000000     0.636350000000     1.02254    
Ni3      Ni     0.164320000000     0.810150000000     0.802160000000     1.03508    
Ni4      Ni     0.163480000000     0.847390000000     0.805990000000     1.01758    
Ni5      Ni     0.496210000000     0.973010000000     0.972780000000     1.00537    
Ni6      Ni     0.498740000000     0.011820000000     0.967260000000     1.0213     
Ni7      Ni     0.163590000000     0.307110000000     0.305840000000     1.00499    
Ni8      Ni     0.164830000000     0.345340000000     0.300360000000     1.02027    
Ni9      Ni     0.831990000000     0.138940000000     0.132120000000     1.03645    
Ni10     Ni     0.830500000000     0.175740000000     0.137980000000     1.01806    
Ni11     Ni     0.498790000000     0.473230000000     0.465720000000     1.00284    
Ni12     Ni     0.497820000000     0.510470000000     0.468180000000     1.0238     
Ni13     Ni     0.182160000000     0.349020000000     0.801860000000     1.03457    
Ni14     Ni     0.146200000000     0.309920000000     0.804640000000     1.03435    
Ni15     Ni     0.351180000000     0.181850000000     0.638390000000     1.01925    
Ni16     Ni     0.312080000000     0.146120000000     0.632520000000     1.0206     
Ni17     Ni     0.011870000000     0.509370000000     0.973400000000     1.01608    
Ni18     Ni     0.973550000000     0.472600000000     0.968540000000     1.04028    
Ni19     Ni     0.681710000000     0.846330000000     0.305090000000     1.02138    
Ni20     Ni     0.643350000000     0.809520000000     0.300580000000     1.00771    
Ni21     Ni     0.845130000000     0.676970000000     0.135800000000     1.00641    
Ni22     Ni     0.807620000000     0.639150000000     0.138770000000     1.02476    
Ni23     Ni     0.513350000000     0.013020000000     0.468670000000     1.03608    
Ni24     Ni     0.476750000000     0.974440000000     0.471400000000     1.03235    
Ni25     Ni     0.312170000000     0.162720000000     0.133920000000     1.00532    
Ni26     Ni     0.351190000000     0.165470000000     0.136980000000     1.00636    
Ni27     Ni     0.478990000000     0.498050000000     0.970070000000     1.01663    
Ni28     Ni     0.515290000000     0.495640000000     0.964570000000     1.05187    
Ni29     Ni     0.149030000000     0.832480000000     0.306920000000     1.0383     
Ni30     Ni     0.185530000000     0.830360000000     0.301580000000     1.00185    
Ni31     Ni     0.981760000000     0.497670000000     0.470190000000     1.00705    
Ni32     Ni     0.019970000000     0.498650000000     0.472710000000     1.0054     
Ni33     Ni     0.815610000000     0.164850000000     0.636610000000     1.0218     
Ni34     Ni     0.852330000000     0.162970000000     0.633510000000     1.02033    
Ni35     Ni     0.645340000000     0.830250000000     0.801540000000     1.03694    
Ni36     Ni     0.683650000000     0.831520000000     0.804690000000     1.00358    
O1       O      0.839200000000     0.644980000000     0.589310000000    -0.454991   
O2       O      0.822520000000     0.638290000000     0.687060000000    -0.409446   
O3       O      0.796750000000     0.624080000000     0.625770000000    -0.444064   
O4       O      0.864810000000     0.659080000000     0.650430000000    -0.442764   
O5       O      0.864340000000     0.694130000000     0.648800000000    -0.444332   
O6       O      0.796330000000     0.659160000000     0.624090000000    -0.443439   
O7       O      0.821840000000     0.673200000000     0.685230000000    -0.455071   
O8       O      0.838560000000     0.679900000000     0.587510000000    -0.409806   
O9       O      0.173820000000     0.818140000000     0.753910000000    -0.410366   
O10      O      0.154840000000     0.804640000000     0.850680000000    -0.409279   
O11      O      0.130530000000     0.794520000000     0.788470000000    -0.444837   
O12      O      0.198020000000     0.828200000000     0.816140000000    -0.438654   
O13      O      0.197520000000     0.863220000000     0.818420000000    -0.44772    
O14      O      0.129540000000     0.829150000000     0.793270000000    -0.407837   
O15      O      0.155070000000     0.839940000000     0.854670000000    -0.44909    
O16      O      0.171890000000     0.852360000000     0.757060000000    -0.448622   
O17      O      0.504080000000     0.975110000000     0.923810000000    -0.448404   
O18      O      0.488430000000     0.973360000000     0.021390000000    -0.448858   
O19      O      0.462210000000     0.958390000000     0.960620000000    -0.453229   
O20      O      0.530420000000     0.990210000000     0.984510000000    -0.447272   
O21      O      0.532520000000     0.026430000000     0.980390000000    -0.449026   
O22      O      0.464760000000     0.994660000000     0.954550000000    -0.408831   
O23      O      0.489930000000     0.009250000000     0.015990000000    -0.443074   
O24      O      0.507370000000     0.011830000000     0.918860000000    -0.4434     
O25      O      0.155580000000     0.307150000000     0.354450000000    -0.448918   
O26      O      0.171630000000     0.309540000000     0.256880000000    -0.449156   
O27      O      0.197720000000     0.325170000000     0.317720000000    -0.453746   
O28      O      0.129580000000     0.291570000000     0.293520000000    -0.448985   
O29      O      0.130870000000     0.327330000000     0.287540000000    -0.448827   
O30      O      0.198680000000     0.360810000000     0.313580000000    -0.408679   
O31      O      0.173690000000     0.345710000000     0.252000000000    -0.44404    
O32      O      0.155930000000     0.342480000000     0.349060000000    -0.443779   
O33      O      0.840030000000     0.147240000000     0.083570000000    -0.444708   
O34      O      0.823950000000     0.133070000000     0.181050000000    -0.403974   
O35      O      0.797850000000     0.122820000000     0.120200000000    -0.449882   
O36      O      0.865990000000     0.157450000000     0.144520000000    -0.402171   
O37      O      0.864450000000     0.191700000000     0.150840000000    -0.452927   
O38      O      0.796680000000     0.157380000000     0.124670000000    -0.40793    
O39      O      0.821670000000     0.167000000000     0.186300000000    -0.447848   
O40      O      0.839450000000     0.182080000000     0.089320000000    -0.442308   
O41      O      0.490690000000     0.469050000000     0.514760000000    -0.448872   
O42      O      0.506870000000     0.479890000000     0.416850000000    -0.448618   
O43      O      0.532810000000     0.491800000000     0.477980000000    -0.453627   
O44      O      0.464670000000     0.457100000000     0.453680000000    -0.448565   
O45      O      0.464050000000     0.492090000000     0.454700000000    -0.44968    
O46      O      0.531680000000     0.526410000000     0.481480000000    -0.409059   
O47      O      0.507010000000     0.515230000000     0.419540000000    -0.444259   
O48      O      0.488650000000     0.503280000000     0.516640000000    -0.444416   
O49      O      0.174940000000     0.350020000000     0.753080000000    -0.404214   
O50      O      0.186990000000     0.345470000000     0.850810000000    -0.448704   
O51      O      0.199760000000     0.332530000000     0.789520000000    -0.402037   
O52      O      0.162220000000     0.362940000000     0.814460000000    -0.450734   
O53      O      0.128760000000     0.326350000000     0.818210000000    -0.406032   
O54      O      0.165970000000     0.296090000000     0.790870000000    -0.448019   
O55      O      0.153990000000     0.308420000000     0.853010000000    -0.405642   
O56      O      0.140790000000     0.313940000000     0.756080000000    -0.448975   
O57      O      0.349130000000     0.188140000000     0.589530000000    -0.454307   
O58      O      0.350770000000     0.173080000000     0.686810000000    -0.409761   
O59      O      0.365360000000     0.162220000000     0.625640000000    -0.443226   
O60      O      0.334410000000     0.199220000000     0.650780000000    -0.444211   
O61      O      0.297900000000     0.165740000000     0.645230000000    -0.443715   
O62      O      0.328840000000     0.128740000000     0.620210000000    -0.444585   
O63      O      0.314110000000     0.139850000000     0.681400000000    -0.454069   
O64      O      0.312500000000     0.154870000000     0.584090000000    -0.409945   
O65      O      0.012210000000     0.501340000000     0.022020000000    -0.449874   
O66      O      0.009010000000     0.514930000000     0.924460000000    -0.448767   
O67      O      0.994070000000     0.525670000000     0.985500000000    -0.407369   
O68      O      0.027170000000     0.490690000000     0.960940000000    -0.448875   
O69      O      0.991390000000     0.456140000000     0.957390000000    -0.438453   
O70      O      0.958240000000     0.491460000000     0.980080000000    -0.443655   
O71      O      0.973620000000     0.480150000000     0.919720000000    -0.409724   
O72      O      0.975980000000     0.467460000000     0.017660000000    -0.410674   
O73      O      0.682330000000     0.838320000000     0.353670000000    -0.408865   
O74      O      0.678540000000     0.851860000000     0.256200000000    -0.448025   
O75      O      0.663980000000     0.862630000000     0.317560000000    -0.445529   
O76      O      0.696970000000     0.827670000000     0.292270000000    -0.442597   
O77      O      0.661170000000     0.793100000000     0.289030000000    -0.447827   
O78      O      0.628080000000     0.828350000000     0.312450000000    -0.449234   
O79      O      0.643080000000     0.817020000000     0.251850000000    -0.450791   
O80      O      0.646080000000     0.804420000000     0.349610000000    -0.455243   
O81      O      0.838310000000     0.678350000000     0.087020000000    -0.449354   
O82      O      0.849630000000     0.673060000000     0.184680000000    -0.449685   
O83      O      0.860840000000     0.658600000000     0.123750000000    -0.449248   
O84      O      0.826910000000     0.692870000000     0.148130000000    -0.452888   
O85      O      0.791910000000     0.657520000000     0.150690000000    -0.408927   
O86      O      0.825790000000     0.623220000000     0.126550000000    -0.448791   
O87      O      0.814440000000     0.637830000000     0.187640000000    -0.444368   
O88      O      0.803200000000     0.643030000000     0.089780000000    -0.44312    
O89      O      0.517960000000     0.009280000000     0.517590000000    -0.449915   
O90      O      0.506340000000     0.014280000000     0.419910000000    -0.405013   
O91      O      0.494140000000     0.027760000000     0.481170000000    -0.451024   
O92      O      0.530170000000     0.995730000000     0.456370000000    -0.402109   
O93      O      0.495800000000     0.959760000000     0.457800000000    -0.447638   
O94      O      0.460060000000     0.991650000000     0.484740000000    -0.405988   
O95      O      0.471660000000     0.978660000000     0.422760000000    -0.448764   
O96      O      0.484300000000     0.972740000000     0.519870000000    -0.405183   
O97      O      0.315790000000     0.171330000000     0.182790000000    -0.448693   
O98      O      0.310990000000     0.154030000000     0.085340000000    -0.448626   
O99      O      0.298010000000     0.128970000000     0.146900000000    -0.449613   
O100     O      0.328950000000     0.196770000000     0.121130000000    -0.448011   
O101     O      0.365360000000     0.199210000000     0.124000000000    -0.449644   
O102     O      0.334420000000     0.131410000000     0.149760000000    -0.447666   
O103     O      0.347580000000     0.156860000000     0.088110000000    -0.44823    
O104     O      0.352380000000     0.174150000000     0.185560000000    -0.448537   
O105     O      0.473350000000     0.490420000000     0.921030000000    -0.408902   
O106     O      0.486960000000     0.505500000000     0.018770000000    -0.454404   
O107     O      0.498250000000     0.532140000000     0.958290000000    -0.445981   
O108     O      0.462110000000     0.463770000000     0.981440000000    -0.449505   
O109     O      0.496230000000     0.461790000000     0.977300000000    -0.406061   
O110     O      0.532020000000     0.529700000000     0.952280000000    -0.403287   
O111     O      0.521350000000     0.504110000000     0.013440000000    -0.399337   
O112     O      0.506800000000     0.487270000000     0.916070000000    -0.444474   
O113     O      0.157570000000     0.841230000000     0.355310000000    -0.439318   
O114     O      0.142880000000     0.823610000000     0.258190000000    -0.438133   
O115     O      0.132580000000     0.798510000000     0.319740000000    -0.40955    
O116     O      0.167850000000     0.866260000000     0.293680000000    -0.409619   
O117     O      0.202110000000     0.864530000000     0.289600000000    -0.453003   
O118     O      0.166540000000     0.796380000000     0.313970000000    -0.45362    
O119     O      0.177400000000     0.822370000000     0.252990000000    -0.448395   
O120     O      0.191250000000     0.838420000000     0.350530000000    -0.448434   
O121     O      0.979850000000     0.488600000000     0.421670000000    -0.449145   
O122     O      0.986130000000     0.506720000000     0.518880000000    -0.448048   
O123     O      0.999570000000     0.531590000000     0.457070000000    -0.447688   
O124     O      0.966470000000     0.463840000000     0.483500000000    -0.4493     
O125     O      0.002090000000     0.464510000000     0.484670000000    -0.449533   
O126     O      0.035340000000     0.532680000000     0.460520000000    -0.448561   
O127     O      0.021360000000     0.506660000000     0.521590000000    -0.448937   
O128     O      0.016080000000     0.490570000000     0.423680000000    -0.450111   
O129     O      0.822730000000     0.172950000000     0.685380000000    -0.408481   
O130     O      0.810910000000     0.156650000000     0.587630000000    -0.449154   
O131     O      0.798950000000     0.130730000000     0.648770000000    -0.442172   
O132     O      0.834690000000     0.198820000000     0.624230000000    -0.449887   
O133     O      0.868840000000     0.196880000000     0.620290000000    -0.408191   
O134     O      0.833450000000     0.129230000000     0.646980000000    -0.448927   
O135     O      0.844710000000     0.153880000000     0.585040000000    -0.443711   
O136     O      0.857480000000     0.172090000000     0.682200000000    -0.448064   
O137     O      0.649410000000     0.839370000000     0.850240000000    -0.404493   
O138     O      0.643780000000     0.821160000000     0.753040000000    -0.444005   
O139     O      0.630160000000     0.796470000000     0.814980000000    -0.445961   
O140     O      0.663000000000     0.864140000000     0.788360000000    -0.403206   
O141     O      0.698850000000     0.865540000000     0.792340000000    -0.452484   
O142     O      0.665890000000     0.797390000000     0.816800000000    -0.448318   
O143     O      0.680090000000     0.823380000000     0.755740000000    -0.449995   
O144     O      0.684740000000     0.839630000000     0.853430000000    -0.45465    


