data_structure

_audit_creation_method RASPA-1.0
_audit_creation_date 2023-6-5
_audit_author_name 'Poobodin Mano'

_cell_length_a    62.9436
_cell_length_b    62.9589
_cell_length_c    38.0683
_cell_angle_alpha 89.946
_cell_angle_beta  90.0538
_cell_angle_gamma 119.934
_cell_volume      130735

_symmetry_cell_setting          triclinic
_symmetry_space_group_name_Hall 'P 1'
_symmetry_space_group_name_H-M  'P 1'
_symmetry_Int_Tables_number     1

_symmetry_equiv_pos_as_xyz 'x,y,z'

loop_
_atom_site_label
_atom_site_type_symbol
_atom_site_fract_x
_atom_site_fract_y
_atom_site_fract_z
_atom_site_charge
C1       C      0.844420000000     0.663760000000     0.569970000000     0.434705   
C2       C      0.823490000000     0.658420000000     0.700630000000     0.434803   
C3       C      0.788570000000     0.638970000000     0.618990000000     0.43387    
C4       C      0.879550000000     0.683360000000     0.651850000000     0.433889   
C5       C      0.156210000000     0.827380000000     0.869900000000     0.433929   
C6       C      0.177500000000     0.844910000000     0.739440000000     0.435761   
C7       C      0.212250000000     0.861010000000     0.820760000000     0.435142   
C8       C      0.121070000000     0.811460000000     0.788390000000     0.436791   
C9       C      0.510120000000     0.007210000000     0.903450000000     0.434493   
C10      C      0.491700000000     0.007230000000     0.034340000000     0.436983   
C11      C      0.454910000000     0.984340000000     0.953790000000     0.434452   
C12      C      0.546320000000     0.029620000000     0.983930000000     0.433717   
C13      C      0.177140000000     0.325770000000     0.235450000000     0.434712   
C14      C      0.157090000000     0.318450000000     0.366690000000     0.437668   
C15      C      0.121510000000     0.300580000000     0.285280000000     0.434199   
C16      C      0.212820000000     0.343590000000     0.316560000000     0.436571   
C17      C      0.844340000000     0.178330000000     0.073050000000     0.43643    
C18      C      0.822130000000     0.163450000000     0.203560000000     0.434387   
C19      C      0.787700000000     0.150300000000     0.121540000000     0.436989   
C20      C      0.878740000000     0.191700000000     0.154590000000     0.436718   
C21      C      0.511530000000     0.504990000000     0.405470000000     0.436052   
C22      C      0.488060000000     0.484960000000     0.535030000000     0.436404   
C23      C      0.454740000000     0.470180000000     0.452270000000     0.433072   
C24      C      0.545150000000     0.519950000000     0.488020000000     0.435348   
C25      C      0.154020000000     0.327410000000     0.735800000000     0.434902   
C26      C      0.171370000000     0.322450000000     0.865980000000     0.43735    
C27      C      0.185940000000     0.302880000000     0.784070000000     0.436282   
C28      C      0.138980000000     0.347060000000     0.817380000000     0.437132   
C29      C      0.335480000000     0.156460000000     0.699120000000     0.437981   
C30      C      0.334070000000     0.172260000000     0.567380000000     0.438095   
C31      C      0.312530000000     0.188070000000     0.647410000000     0.434274   
C32      C      0.356580000000     0.140410000000     0.619080000000     0.433978   
C33      C      0.995590000000     0.480960000000     0.031410000000     0.436497   
C34      C      0.989680000000     0.497810000000     0.901230000000     0.439165   
C35      C      0.968920000000     0.510750000000     0.983470000000     0.433814   
C36      C      0.016580000000     0.467740000000     0.949070000000     0.431799   
C37      C      0.665170000000     0.836280000000     0.238860000000     0.436574   
C38      C      0.664740000000     0.817290000000     0.369800000000     0.437069   
C39      C      0.685370000000     0.801710000000     0.288910000000     0.434101   
C40      C      0.644400000000     0.852030000000     0.319510000000     0.436474   
C41      C      0.829260000000     0.647480000000     0.201550000000     0.43743    
C42      C      0.815740000000     0.656340000000     0.070800000000     0.436807   
C43      C      0.802070000000     0.676710000000     0.152860000000     0.43651    
C44      C      0.843270000000     0.626950000000     0.119300000000     0.437583   
C45      C      0.506310000000     0.990970000000     0.535090000000     0.43796    
C46      C      0.494440000000     0.001160000000     0.404310000000     0.434499   
C47      C      0.478310000000     0.019520000000     0.486210000000     0.436977   
C48      C      0.522800000000     0.973020000000     0.452760000000     0.434571   
C49      C      0.318360000000     0.145910000000     0.067020000000     0.435192   
C50      C      0.327240000000     0.168480000000     0.197260000000     0.435305   
C51      C      0.345750000000     0.202700000000     0.115120000000     0.436731   
C52      C      0.300140000000     0.111930000000     0.149600000000     0.434743   
C53      C      0.503940000000     0.502070000000     0.035770000000     0.434228   
C54      C      0.488640000000     0.481400000000     0.904920000000     0.43382    
C55      C      0.470690000000     0.446280000000     0.986470000000     0.434395   
C56      C      0.521780000000     0.537090000000     0.954130000000     0.433842   
C57      C      0.167860000000     0.836420000000     0.370010000000     0.433654   
C58      C      0.151270000000     0.814380000000     0.239630000000     0.436687   
C59      C      0.136310000000     0.779980000000     0.321760000000     0.433227   
C60      C      0.183150000000     0.870890000000     0.288210000000     0.437      
C61      C      0.990720000000     0.478660000000     0.401530000000     0.439135   
C62      C      0.997080000000     0.501410000000     0.531720000000     0.436689   
C63      C      0.018120000000     0.535780000000     0.449410000000     0.434419   
C64      C      0.969700000000     0.444880000000     0.483630000000     0.435809   
C65      C      0.832440000000     0.168620000000     0.703190000000     0.434837   
C66      C      0.815370000000     0.147760000000     0.572570000000     0.436456   
C67      C      0.799790000000     0.112480000000     0.653660000000     0.436505   
C68      C      0.847700000000     0.203630000000     0.621670000000     0.434188   
C69      C      0.667400000000     0.835510000000     0.869160000000     0.434408   
C70      C      0.665570000000     0.814240000000     0.739110000000     0.433498   
C71      C      0.647100000000     0.779520000000     0.820980000000     0.436346   
C72      C      0.686010000000     0.870120000000     0.787080000000     0.433829   
C73      C      0.750300000000     0.050740000000     0.680250000000    -0.131636   
C74      C      0.721550000000     0.908220000000     0.773540000000     0.0740555  
C75      C      0.682150000000     0.903980000000     0.767200000000     0.0739958  
C76      C      0.732560000000     0.932220000000     0.760900000000    -0.0946689  
C77      C      0.751430000000     0.986490000000     0.750200000000    -0.0374373  
C78      C      0.762600000000     0.009990000000     0.735620000000    -0.0329135  
C79      C      0.729520000000     0.967510000000     0.736010000000    -0.00634143 
C80      C      0.692570000000     0.927930000000     0.754390000000    -0.0944614  
C81      C      0.752110000000     0.015090000000     0.706510000000    -0.0142738  
C82      C      0.789490000000     0.053480000000     0.686590000000    -0.10463    
C83      C      0.730110000000     0.996170000000     0.692460000000    -0.032932   
C84      C      0.800590000000     0.077180000000     0.672980000000     0.0770683  
C85      C      0.761760000000     0.074570000000     0.666030000000     0.151583   
C86      C      0.718940000000     0.972650000000     0.707050000000    -0.0376292  
C87      C      0.718060000000     0.942310000000     0.750820000000     0.0492934  
C88      C      0.764120000000     0.040100000000     0.690930000000     0.0652508  
C89      C      0.745070000000     0.083820000000     0.653050000000    -0.215662   
C90      C      0.920010000000     0.383820000000     0.512750000000    -0.13215    
C91      C      0.884890000000     0.239010000000     0.604260000000     0.0738465  
C92      C      0.847950000000     0.240370000000     0.605890000000     0.0739633  
C93      C      0.897590000000     0.262990000000     0.591420000000    -0.0946663  
C94      C      0.916010000000     0.307230000000     0.543690000000    -0.0374152  
C95      C      0.927720000000     0.330630000000     0.528720000000    -0.0332307  
C96      C      0.898060000000     0.301000000000     0.569850000000    -0.00652078 
C97      C      0.860040000000     0.264300000000     0.592870000000    -0.0947783  
C98      C      0.921620000000     0.348280000000     0.539350000000    -0.0145512  
C99      C      0.958990000000     0.385980000000     0.517900000000    -0.10508    
C100     C      0.903800000000     0.342150000000     0.565600000000    -0.0332347  
C101     C      0.970160000000     0.409560000000     0.503870000000     0.0760183  
C102     C      0.931480000000     0.407480000000     0.497940000000     0.151837   
C103     C      0.892220000000     0.318820000000     0.580760000000    -0.0375934  
C104     C      0.885130000000     0.275870000000     0.585120000000     0.0491455  
C105     C      0.933720000000     0.373020000000     0.523110000000     0.0654371  
C106     C      0.914780000000     0.417030000000     0.486180000000    -0.216856   
C107     C      0.067220000000     0.597320000000     0.420440000000    -0.13111    
C108     C      0.099600000000     0.744260000000     0.340030000000     0.0733342  
C109     C      0.136830000000     0.743530000000     0.336640000000     0.0733673  
C110     C      0.087400000000     0.720190000000     0.352700000000    -0.0945738  
C111     C      0.064680000000     0.664670000000     0.361000000000    -0.0377029  
C112     C      0.053440000000     0.640830000000     0.374470000000    -0.0330764  
C113     C      0.088060000000     0.682460000000     0.372690000000    -0.00666485 
C114     C      0.125270000000     0.719570000000     0.349410000000    -0.0955027  
C115     C      0.065270000000     0.634280000000     0.400090000000    -0.0142281  
C116     C      0.028390000000     0.595730000000     0.420810000000    -0.103675   
C117     C      0.088550000000     0.652200000000     0.412040000000    -0.0331752  
C118     C      0.017490000000     0.571700000000     0.433020000000     0.0736225  
C119     C      0.055970000000     0.573040000000     0.433040000000     0.151097   
C120     C      0.099820000000     0.675970000000     0.398450000000    -0.0377208  
C121     C      0.100330000000     0.707670000000     0.357960000000     0.0491225  
C122     C      0.053480000000     0.608800000000     0.414040000000     0.0645287  
C123     C      0.072600000000     0.562380000000     0.439020000000    -0.216194   
C124     C      0.637740000000     0.719320000000     0.851110000000    -0.131954   
C125     C      0.524000000000     0.574940000000     0.939660000000     0.0741501  
C126     C      0.559770000000     0.571510000000     0.936610000000     0.0739572  
C127     C      0.537020000000     0.599050000000     0.927470000000    -0.0945456  
C128     C      0.571690000000     0.653490000000     0.918160000000    -0.0376319  
C129     C      0.583880000000     0.677030000000     0.903730000000    -0.0328292  
C130     C      0.575790000000     0.634970000000     0.905040000000    -0.00632162 
C131     C      0.573360000000     0.595600000000     0.924340000000    -0.0945045  
C132     C      0.600500000000     0.682660000000     0.875870000000    -0.0144228  
C133     C      0.599870000000     0.719700000000     0.853490000000    -0.104883   
C134     C      0.604910000000     0.664270000000     0.863090000000    -0.0328889  
C135     C      0.611750000000     0.743280000000     0.839490000000     0.0771515  
C136     C      0.649440000000     0.743090000000     0.836580000000     0.152745   
C137     C      0.592690000000     0.640690000000     0.877500000000    -0.037584   
C138     C      0.561970000000     0.609630000000     0.919340000000     0.0492538  
C139     C      0.612900000000     0.707560000000     0.859990000000     0.065548   
C140     C      0.676070000000     0.753750000000     0.826210000000    -0.217709   
C141     C      0.231850000000     0.932460000000     0.259370000000    -0.131974   
C142     C      0.263270000000     0.075630000000     0.165650000000     0.0739784  
C143     C      0.301330000000     0.076530000000     0.168680000000     0.0742838  
C144     C      0.251150000000     0.051820000000     0.179250000000    -0.0945971  
C145     C      0.229500000000     0.996890000000     0.191760000000    -0.037593   
C146     C      0.218230000000     0.973490000000     0.206760000000    -0.0328671  
C147     C      0.252240000000     0.015460000000     0.204380000000    -0.0064261  
C148     C      0.289830000000     0.052820000000     0.182400000000    -0.0949394  
C149     C      0.229420000000     0.968160000000     0.234760000000    -0.0144112  
C150     C      0.192540000000     0.929740000000     0.255880000000    -0.104931   
C151     C      0.252020000000     0.986840000000     0.247630000000    -0.0328485  
C152     C      0.181840000000     0.906060000000     0.269510000000     0.0769858  
C153     C      0.220820000000     0.908670000000     0.273630000000     0.152483   
C154     C      0.263300000000     0.010190000000     0.232590000000    -0.0376818  
C155     C      0.264500000000     0.040270000000     0.188280000000     0.0494389  
C156     C      0.217760000000     0.943130000000     0.250200000000     0.0654836  
C157     C      0.237900000000     0.899380000000     0.284530000000    -0.216951   
C158     C      0.394280000000     0.264470000000     0.086790000000    -0.132504   
C159     C      0.432440000000     0.411430000000     0.002110000000     0.0738652  
C160     C      0.468580000000     0.408570000000     0.001460000000     0.0741473  
C161     C      0.418720000000     0.387120000000     0.013490000000    -0.0943138  
C162     C      0.397810000000     0.340850000000     0.058070000000    -0.0375055  
C163     C      0.385670000000     0.317060000000     0.071840000000    -0.0331001  
C164     C      0.416250000000     0.347600000000     0.032530000000    -0.00643286 
C165     C      0.455470000000     0.384320000000     0.012970000000    -0.0946472  
C166     C      0.391840000000     0.299580000000     0.060570000000    -0.0146551  
C167     C      0.354810000000     0.261230000000     0.081600000000    -0.104873   
C168     C      0.409850000000     0.306140000000     0.034530000000    -0.0331905  
C169     C      0.344140000000     0.237560000000     0.095390000000     0.0764828  
C170     C      0.383330000000     0.240810000000     0.101440000000     0.1526     
C171     C      0.421840000000     0.329810000000     0.020580000000    -0.0377833  
C172     C      0.430230000000     0.373260000000     0.019300000000     0.0490359  
C173     C      0.380080000000     0.274740000000     0.076470000000     0.0656114  
C174     C      0.400570000000     0.232060000000     0.113770000000    -0.216762   
C175     C      0.644160000000     0.795990000000     0.460780000000    -0.131216   
C176     C      0.686540000000     0.813370000000     0.687510000000     0.0733903  
C177     C      0.644840000000     0.803040000000     0.684060000000     0.0739171  
C178     C      0.687470000000     0.811310000000     0.651070000000    -0.0954114  
C179     C      0.685400000000     0.825340000000     0.573840000000    -0.0377831  
C180     C      0.685250000000     0.826060000000     0.537180000000    -0.0325615  
C181     C      0.667680000000     0.804650000000     0.591980000000    -0.00666288 
C182     C      0.644990000000     0.800290000000     0.647690000000    -0.0952766  
C183     C      0.667630000000     0.805900000000     0.517710000000    -0.0142188  
C184     C      0.687950000000     0.821020000000     0.458950000000    -0.104417   
C185     C      0.650420000000     0.784850000000     0.536090000000    -0.0328424  
C186     C      0.686540000000     0.823800000000     0.422860000000     0.0776795  
C187     C      0.643070000000     0.798710000000     0.424200000000     0.152355   
C188     C      0.650280000000     0.784350000000     0.572830000000    -0.0383891  
C189     C      0.666610000000     0.804960000000     0.630780000000     0.0494779  
C190     C      0.666620000000     0.807340000000     0.478620000000     0.0647592  
C191     C      0.617790000000     0.787060000000     0.407740000000    -0.217663   
C192     C      0.686550000000     0.856940000000     0.147920000000    -0.13111    
C193     C      0.646280000000     0.836600000000     0.920400000000     0.0740973  
C194     C      0.687850000000     0.846570000000     0.924470000000     0.0740922  
C195     C      0.645180000000     0.838850000000     0.956760000000    -0.0954838  
C196     C      0.646850000000     0.825370000000     0.034450000000    -0.0378145  
C197     C      0.646580000000     0.825210000000     0.071140000000    -0.0325046  
C198     C      0.664610000000     0.845880000000     0.016070000000    -0.00655438 
C199     C      0.687540000000     0.849520000000     0.960810000000    -0.0953157  
C200     C      0.663790000000     0.845780000000     0.090350000000    -0.0141167  
C201     C      0.642820000000     0.831330000000     0.148880000000    -0.104233   
C202     C      0.681070000000     0.866630000000     0.071650000000    -0.0327212  
C203     C      0.643870000000     0.829080000000     0.185170000000     0.0774914  
C204     C      0.687260000000     0.854790000000     0.184680000000     0.151753   
C205     C      0.681660000000     0.866560000000     0.034920000000    -0.0382601  
C206     C      0.665900000000     0.845160000000     0.977330000000     0.0497363  
C207     C      0.664330000000     0.844980000000     0.129560000000     0.0647268  
C208     C      0.712380000000     0.867210000000     0.201740000000    -0.216952   
C209     C      0.791450000000     0.726730000000     0.182940000000    -0.132477   
C210     C      0.682520000000     0.764130000000     0.270840000000     0.073533   
C211     C      0.721400000000     0.800170000000     0.274800000000     0.0729531  
C212     C      0.693400000000     0.750960000000     0.258300000000    -0.0946767  
C213     C      0.719340000000     0.732230000000     0.211220000000    -0.0375808  
C214     C      0.730890000000     0.720350000000     0.196330000000    -0.0332281  
C215     C      0.730710000000     0.749410000000     0.238400000000    -0.00666701 
C216     C      0.732840000000     0.787600000000     0.262130000000    -0.0951223  
C217     C      0.754140000000     0.725510000000     0.208100000000    -0.0148225  
C218     C      0.754020000000     0.688170000000     0.185480000000    -0.105772   
C219     C      0.765440000000     0.742490000000     0.235430000000    -0.033274   
C220     C      0.766310000000     0.676840000000     0.171610000000     0.0755798  
C221     C      0.803530000000     0.715100000000     0.168290000000     0.151971   
C222     C      0.753830000000     0.754230000000     0.250500000000    -0.0377333  
C223     C      0.718840000000     0.762730000000     0.253370000000     0.0489675  
C224     C      0.766670000000     0.713290000000     0.191920000000     0.0654394  
C225     C      0.830140000000     0.731520000000     0.158140000000    -0.217146   
C226     C      0.633440000000     0.902000000000     0.348470000000    -0.132163   
C227     C      0.521870000000     0.935950000000     0.436840000000     0.0735649  
C228     C      0.559450000000     0.973600000000     0.435590000000     0.0739745  
C229     C      0.533510000000     0.923550000000     0.424120000000    -0.0949616  
C230     C      0.559880000000     0.905930000000     0.375610000000    -0.0375108  
C231     C      0.571950000000     0.894500000000     0.360960000000    -0.0331164  
C232     C      0.571230000000     0.923870000000     0.401820000000    -0.00664977 
C233     C      0.571650000000     0.961790000000     0.422920000000    -0.0950347  
C234     C      0.595650000000     0.900740000000     0.372180000000    -0.0145563  
C235     C      0.595930000000     0.863460000000     0.349990000000    -0.105537   
C236     C      0.606950000000     0.918580000000     0.398520000000    -0.0332033  
C237     C      0.608370000000     0.852160000000     0.336580000000     0.0762432  
C238     C      0.645690000000     0.890360000000     0.334400000000     0.152324   
C239     C      0.594880000000     0.930010000000     0.413170000000    -0.0377193  
C240     C      0.558660000000     0.936500000000     0.416690000000     0.0492849  
C241     C      0.608500000000     0.888570000000     0.356670000000     0.0653608  
C242     C      0.672320000000     0.906710000000     0.324360000000    -0.217224   
C243     C      0.003470000000     0.525810000000     0.812610000000    -0.135378   
C244     C      0.015860000000     0.505260000000     0.587400000000     0.0728878  
C245     C      0.980110000000     0.508700000000     0.583210000000     0.0742452  
C246     C      0.015550000000     0.506770000000     0.623930000000    -0.0982856  
C247     C      0.996860000000     0.490130000000     0.698280000000    -0.0372039  
C248     C      0.994760000000     0.489020000000     0.734810000000    -0.0325456  
C249     C      0.995160000000     0.508390000000     0.679350000000    -0.00725871 
C250     C      0.979440000000     0.510590000000     0.619740000000    -0.0958919  
C251     C      0.991210000000     0.506310000000     0.753220000000    -0.01531    
C252     C      0.973940000000     0.482920000000     0.808770000000    -0.106422   
C253     C      0.989690000000     0.524710000000     0.734380000000    -0.0326422  
C254     C      0.973630000000     0.481520000000     0.845280000000     0.0788473  
C255     C      0.002880000000     0.524080000000     0.849520000000     0.152622   
C256     C      0.991420000000     0.525610000000     0.697690000000    -0.0376981  
C257     C      0.996950000000     0.509020000000     0.640520000000     0.0520441  
C258     C      0.989350000000     0.505080000000     0.792050000000     0.0688095  
C259     C      0.017730000000     0.547670000000     0.869820000000    -0.218051   
C260     C      0.004360000000     0.463790000000     0.313310000000    -0.134667   
C261     C      0.014510000000     0.494950000000     0.087310000000     0.072743   
C262     C      0.977880000000     0.456630000000     0.082570000000     0.0746155  
C263     C      0.014190000000     0.492600000000     0.123810000000    -0.0966749  
C264     C      0.014820000000     0.478310000000     0.199680000000    -0.0395755  
C265     C      0.013460000000     0.477780000000     0.236330000000    -0.0347492  
C266     C      0.993540000000     0.470040000000     0.179180000000    -0.00488713 
C267     C      0.977050000000     0.453650000000     0.119000000000    -0.0952189  
C268     C      0.990770000000     0.468870000000     0.253420000000    -0.0129081  
C269     C      0.973850000000     0.475900000000     0.309070000000    -0.105363   
C270     C      0.969430000000     0.460140000000     0.232920000000    -0.0332247  
C271     C      0.974000000000     0.477750000000     0.345550000000     0.07734    
C272     C      0.004040000000     0.465440000000     0.350150000000     0.150909   
C273     C      0.970810000000     0.460750000000     0.196270000000    -0.0375625  
C274     C      0.995100000000     0.471960000000     0.140190000000     0.0510752  
C275     C      0.989540000000     0.469390000000     0.292430000000     0.0670414  
C276     C      0.019400000000     0.457320000000     0.370620000000    -0.216707   
C277     C      0.854450000000     0.577000000000     0.090430000000    -0.131991   
C278     C      0.968470000000     0.546670000000     0.001870000000     0.0737566  
C279     C      0.931320000000     0.508670000000     0.999310000000     0.0737897  
C280     C      0.956090000000     0.558150000000     0.015090000000    -0.0948827  
C281     C      0.928310000000     0.573720000000     0.063620000000    -0.0373643  
C282     C      0.915890000000     0.584730000000     0.078370000000    -0.0329964  
C283     C      0.917490000000     0.556260000000     0.036660000000    -0.00647605 
C284     C      0.918370000000     0.519560000000     0.012620000000    -0.0946108  
C285     C      0.892310000000     0.578480000000     0.066640000000    -0.0145579  
C286     C      0.891690000000     0.615730000000     0.087780000000    -0.105196   
C287     C      0.881390000000     0.560930000000     0.039860000000    -0.0330267  
C288     C      0.879150000000     0.626980000000     0.100980000000     0.0770214  
C289     C      0.842080000000     0.588600000000     0.104260000000     0.151324   
C290     C      0.893860000000     0.549980000000     0.024990000000    -0.0376723  
C291     C      0.930770000000     0.544550000000     0.021080000000     0.0492241  
C292     C      0.879310000000     0.590540000000     0.081880000000     0.0655441  
C293     C      0.815350000000     0.572130000000     0.113770000000    -0.215805   
C294     C      0.347990000000     0.167040000000     0.794580000000    -0.133337   
C295     C      0.333860000000     0.137380000000     0.015110000000     0.074128   
C296     C      0.298780000000     0.142060000000     0.011980000000     0.0743387  
C297     C      0.333890000000     0.135090000000     0.978620000000    -0.0957936  
C298     C      0.320770000000     0.120390000000     0.900680000000    -0.0380045  
C299     C      0.323640000000     0.122260000000     0.864150000000    -0.0332997  
C300     C      0.318230000000     0.138150000000     0.919610000000    -0.00714025 
C301     C      0.298520000000     0.140250000000     0.975440000000    -0.095824   
C302     C      0.324570000000     0.142210000000     0.846240000000    -0.0153489  
C303     C      0.313670000000     0.126900000000     0.784680000000    -0.105764   
C304     C      0.321840000000     0.159820000000     0.865160000000    -0.0330944  
C305     C      0.316840000000     0.131120000000     0.748590000000     0.0770997  
C306     C      0.351340000000     0.170850000000     0.758130000000     0.15262    
C307     C      0.318510000000     0.157710000000     0.901470000000    -0.0377375  
C308     C      0.316480000000     0.137180000000     0.958380000000     0.0498936  
C309     C      0.328940000000     0.145220000000     0.807960000000     0.0665633  
C310     C      0.372550000000     0.195300000000     0.746440000000    -0.216392   
C311     C      0.354900000000     0.192070000000     0.476130000000    -0.133581   
C312     C      0.309240000000     0.170990000000     0.250950000000     0.0738485  
C313     C      0.350180000000     0.178820000000     0.250390000000     0.0740217  
C314     C      0.309920000000     0.173240000000     0.287500000000    -0.0942693  
C315     C      0.318080000000     0.187300000000     0.364350000000    -0.0373868  
C316     C      0.318140000000     0.187140000000     0.401110000000    -0.0334708  
C317     C      0.331820000000     0.179120000000     0.345250000000    -0.00657225 
C318     C      0.351690000000     0.181790000000     0.286790000000    -0.0947724  
C319     C      0.332330000000     0.179310000000     0.419440000000    -0.0150902  
C320     C      0.311340000000     0.165040000000     0.477230000000    -0.105767   
C321     C      0.346230000000     0.171400000000     0.400630000000    -0.0333528  
C322     C      0.312500000000     0.163320000000     0.513630000000     0.0779453  
C323     C      0.355760000000     0.190430000000     0.512890000000     0.153188   
C324     C      0.345780000000     0.171040000000     0.364000000000    -0.0372086  
C325     C      0.331220000000     0.178340000000     0.306070000000     0.0489287  
C326     C      0.332730000000     0.179180000000     0.458190000000     0.0666795  
C327     C      0.380920000000     0.203910000000     0.529760000000    -0.217315   
C328     C      0.465630000000     0.068340000000     0.515220000000    -0.13259    
C329     C      0.355010000000     0.103130000000     0.602880000000     0.0736679  
C330     C      0.393260000000     0.140000000000     0.605150000000     0.0724828  
C331     C      0.366420000000     0.090330000000     0.590960000000    -0.0948077  
C332     C      0.392660000000     0.071640000000     0.544690000000    -0.0375558  
C333     C      0.404510000000     0.059920000000     0.530270000000    -0.0332991  
C334     C      0.404110000000     0.089650000000     0.570860000000    -0.00677835 
C335     C      0.405240000000     0.127810000000     0.593020000000    -0.0951756  
C336     C      0.428160000000     0.066070000000     0.541460000000    -0.014748   
C337     C      0.429220000000     0.029040000000     0.519880000000    -0.105204   
C338     C      0.439550000000     0.083870000000     0.567800000000    -0.0334533  
C339     C      0.442020000000     0.018240000000     0.505850000000     0.0761814  
C340     C      0.478150000000     0.057250000000     0.500310000000     0.1524     
C341     C      0.427640000000     0.095460000000     0.582420000000    -0.0378166  
C342     C      0.391800000000     0.102690000000     0.585370000000     0.0487608  
C343     C      0.441150000000     0.054270000000     0.525380000000     0.0654882  
C344     C      0.504160000000     0.074340000000     0.488110000000    -0.216655   
C345     C      0.089820000000     0.359940000000     0.843800000000    -0.132019   
C346     C      0.054210000000     0.469430000000     0.934330000000     0.073219   
C347     C      0.016720000000     0.431880000000     0.929680000000     0.0709029  
C348     C      0.067090000000     0.458360000000     0.921230000000    -0.0943752  
C349     C      0.090100000000     0.426060000000     0.909900000000    -0.0378169  
C350     C      0.102000000000     0.414310000000     0.895680000000    -0.0328828  
C351     C      0.067520000000     0.421660000000     0.896160000000    -0.0063736  
C352     C      0.028990000000     0.420290000000     0.916430000000    -0.09404    
C353     C      0.091610000000     0.397950000000     0.867360000000    -0.0145374  
C354     C      0.129040000000     0.396440000000     0.848510000000    -0.104614   
C355     C      0.069260000000     0.393940000000     0.853260000000    -0.0330175  
C356     C      0.140020000000     0.383480000000     0.835710000000     0.0767373  
C357     C      0.101120000000     0.347210000000     0.830390000000     0.152311   
C358     C      0.057340000000     0.405620000000     0.867510000000    -0.0380137  
C359     C      0.054430000000     0.433580000000     0.911650000000     0.0485789  
C360     C      0.103690000000     0.384650000000     0.853060000000     0.065224   
C361     C      0.084230000000     0.320930000000     0.819070000000    -0.216438   
C362     C      0.200650000000     0.255560000000     0.754300000000    -0.132406   
C363     C      0.313680000000     0.225150000000     0.663980000000     0.0729618  
C364     C      0.275680000000     0.187990000000     0.661580000000     0.073814   
C365     C      0.301970000000     0.237620000000     0.676200000000    -0.0948584  
C366     C      0.274960000000     0.255280000000     0.723100000000    -0.0374379  
C367     C      0.262510000000     0.266210000000     0.738160000000    -0.0332069  
C368     C      0.263850000000     0.237460000000     0.696620000000    -0.00656289 
C369     C      0.263440000000     0.199840000000     0.673950000000    -0.0948616  
C370     C      0.238620000000     0.259420000000     0.727300000000    -0.0146957  
C371     C      0.236180000000     0.295500000000     0.749670000000    -0.105262   
C372     C      0.227640000000     0.241900000000     0.700540000000    -0.0331453  
C373     C      0.222750000000     0.305520000000     0.763970000000     0.0759653  
C374     C      0.187460000000     0.265870000000     0.769430000000     0.151767   
C375     C      0.240130000000     0.231120000000     0.685270000000    -0.0377255  
C376     C      0.276570000000     0.224910000000     0.681790000000     0.0490206  
C377     C      0.225010000000     0.270340000000     0.744000000000     0.0655591  
C378     C      0.161500000000     0.248090000000     0.781120000000    -0.216382   
C379     C      0.470400000000     0.487500000000     0.626920000000    -0.133019   
C380     C      0.499980000000     0.470720000000     0.850920000000     0.0739133  
C381     C      0.468120000000     0.480400000000     0.851780000000     0.0738325  
C382     C      0.498020000000     0.467980000000     0.814460000000    -0.0940658  
C383     C      0.501990000000     0.478930000000     0.737040000000    -0.0371979  
C384     C      0.501490000000     0.479090000000     0.700370000000    -0.0331052  
C385     C      0.480460000000     0.471580000000     0.756680000000    -0.00627685 
C386     C      0.466040000000     0.478320000000     0.815240000000    -0.0938382  
C387     C      0.479580000000     0.472380000000     0.682390000000    -0.0147987  
C388     C      0.489430000000     0.462690000000     0.623120000000    -0.10573    
C389     C      0.458010000000     0.464940000000     0.701690000000    -0.0334159  
C390     C      0.490770000000     0.465720000000     0.586770000000     0.0779118  
C391     C      0.471990000000     0.490450000000     0.590190000000     0.153427   
C392     C      0.458380000000     0.464300000000     0.738420000000    -0.0375469  
C393     C      0.481300000000     0.472330000000     0.795900000000     0.0487007  
C394     C      0.479560000000     0.473980000000     0.643600000000     0.0660689  
C395     C      0.460470000000     0.504280000000     0.574020000000    -0.218488   
C396     C      0.527870000000     0.501560000000     0.313210000000    -0.133237   
C397     C      0.492900000000     0.513000000000     0.089850000000     0.0741225  
C398     C      0.525160000000     0.503920000000     0.088530000000     0.0737914  
C399     C      0.495440000000     0.516400000000     0.126200000000    -0.0940878  
C400     C      0.493410000000     0.507380000000     0.204180000000    -0.0370908  
C401     C      0.494790000000     0.508060000000     0.240820000000    -0.0331382  
C402     C      0.514520000000     0.514530000000     0.183600000000    -0.00637129 
C403     C      0.527860000000     0.506690000000     0.124940000000    -0.093956   
C404     C      0.517180000000     0.515440000000     0.257830000000    -0.0147806  
C405     C      0.508560000000     0.526100000000     0.317250000000    -0.105752   
C406     C      0.538330000000     0.522740000000     0.237580000000    -0.0336215  
C407     C      0.507980000000     0.523660000000     0.353680000000     0.077311   
C408     C      0.527040000000     0.499200000000     0.350020000000     0.153543   
C409     C      0.537070000000     0.522540000000     0.200890000000    -0.0374917  
C410     C      0.512770000000     0.512800000000     0.144460000000     0.0487381  
C411     C      0.518140000000     0.514600000000     0.296630000000     0.0660043  
C412     C      0.539110000000     0.485860000000     0.366060000000    -0.218591   
C413     C      0.857040000000     0.204370000000     0.983140000000    -0.131889   
C414     C      0.857460000000     0.175580000000     0.753660000000     0.0741209  
C415     C      0.819790000000     0.175240000000     0.759140000000     0.0738487  
C416     C      0.861440000000     0.179080000000     0.789800000000    -0.0948251  
C417     C      0.856950000000     0.169530000000     0.867980000000    -0.037316   
C418     C      0.858820000000     0.170390000000     0.904570000000    -0.0331196  
C419     C      0.847120000000     0.182250000000     0.850160000000    -0.00637689 
C420     C      0.823100000000     0.178550000000     0.795430000000    -0.0945416  
C421     C      0.850740000000     0.183860000000     0.924350000000    -0.0142843  
C422     C      0.845190000000     0.161790000000     0.981350000000    -0.104769   
C423     C      0.841340000000     0.196970000000     0.906510000000    -0.0328581  
C424     C      0.844200000000     0.161140000000     0.017880000000     0.0773656  
C425     C      0.856230000000     0.203450000000     0.020120000000     0.151534   
C426     C      0.839600000000     0.196230000000     0.869870000000    -0.0377184  
C427     C      0.843990000000     0.180230000000     0.811310000000     0.0491512  
C428     C      0.851160000000     0.183400000000     0.963430000000     0.0650523  
C429     C      0.864480000000     0.227400000000     0.039260000000    -0.215796   
C430     C      0.789120000000     0.138420000000     0.483110000000    -0.132585   
C431     C      0.812780000000     0.138410000000     0.254590000000     0.0737312  
C432     C      0.818070000000     0.178340000000     0.259200000000     0.0734125  
C433     C      0.809550000000     0.135190000000     0.290890000000    -0.0951677  
C434     C      0.828300000000     0.170820000000     0.371330000000    -0.0375271  
C435     C      0.828160000000     0.168420000000     0.407790000000    -0.0330268  
C436     C      0.810230000000     0.151990000000     0.350670000000    -0.00699935 
C437     C      0.815290000000     0.175850000000     0.295630000000    -0.0956494  
C438     C      0.809770000000     0.147290000000     0.424390000000    -0.0149179  
C439     C      0.831520000000     0.149550000000     0.480200000000    -0.105659   
C440     C      0.791410000000     0.128610000000     0.403840000000    -0.0333374  
C441     C      0.832170000000     0.148920000000     0.516710000000     0.0779719  
C442     C      0.790090000000     0.137820000000     0.520050000000     0.152481   
C443     C      0.791770000000     0.130850000000     0.367240000000    -0.0380122  
C444     C      0.811290000000     0.154220000000     0.311880000000     0.0494735  
C445     C      0.810050000000     0.144860000000     0.463060000000     0.0659465  
C446     C      0.766320000000     0.129380000000     0.539740000000    -0.216691   
C447     C      0.151110000000     0.301490000000     0.461010000000    -0.131613   
C448     C      0.167840000000     0.346060000000     0.679760000000     0.0738011  
C449     C      0.129460000000     0.309550000000     0.684900000000     0.0732787  
C450     C      0.165480000000     0.345470000000     0.643260000000    -0.0946837  
C451     C      0.152570000000     0.345320000000     0.566820000000    -0.0376078  
C452     C      0.152890000000     0.343440000000     0.530280000000    -0.0329844  
C453     C      0.143020000000     0.324260000000     0.588070000000    -0.00654034 
C454     C      0.126370000000     0.308550000000     0.648490000000    -0.0953007  
C455     C      0.143430000000     0.320410000000     0.514000000000    -0.0142446  
C456     C      0.142960000000     0.334490000000     0.452450000000    -0.105001   
C457     C      0.133010000000     0.299290000000     0.535180000000    -0.033208   
C458     C      0.146660000000     0.333630000000     0.416540000000     0.0774069  
C459     C      0.154630000000     0.300720000000     0.424610000000     0.152022   
C460     C      0.132930000000     0.301190000000     0.571720000000    -0.0374867  
C461     C      0.144760000000     0.326320000000     0.627060000000     0.0489964  
C462     C      0.145500000000     0.318570000000     0.475280000000     0.0651769  
C463     C      0.161820000000     0.282330000000     0.412110000000    -0.216677   
C464     C      0.199820000000     0.336480000000     0.954260000000    -0.13346    
C465     C      0.183150000000     0.309060000000     0.182720000000     0.0736183  
C466     C      0.181330000000     0.345770000000     0.180720000000     0.0744506  
C467     C      0.184880000000     0.309020000000     0.146130000000    -0.0955512  
C468     C      0.165100000000     0.328560000000     0.069400000000    -0.0376294  
C469     C      0.163770000000     0.326940000000     0.032830000000    -0.0329192  
C470     C      0.183290000000     0.326300000000     0.087610000000    -0.00702379 
C471     C      0.182640000000     0.346070000000     0.144130000000    -0.0957825  
C472     C      0.180810000000     0.323390000000     0.013730000000    -0.0151471  
C473     C      0.157110000000     0.306320000000     0.958430000000    -0.106394   
C474     C      0.199190000000     0.321380000000     0.031850000000    -0.0332877  
C475     C      0.155490000000     0.306160000000     0.921960000000     0.0776805  
C476     C      0.197850000000     0.336080000000     0.917400000000     0.153468   
C477     C      0.200270000000     0.322590000000     0.068560000000    -0.0379318  
C478     C      0.184040000000     0.327350000000     0.126450000000     0.0498823  
C479     C      0.179300000000     0.321910000000     0.974940000000     0.06636    
C480     C      0.221240000000     0.351400000000     0.896870000000    -0.218503   
C481     C      0.941750000000     0.237800000000     0.181760000000    -0.13261    
C482     C      0.084190000000     0.264180000000     0.271180000000     0.0735409  
C483     C      0.086240000000     0.302760000000     0.268270000000     0.073609   
C484     C      0.059950000000     0.252460000000     0.259310000000    -0.0943452  
C485     C      0.015050000000     0.235130000000     0.212740000000    -0.0416172  
C486     C      0.991440000000     0.224590000000     0.198550000000    -0.0289198  
C487     C      0.023170000000     0.254280000000     0.237380000000    -0.00431553 
C488     C      0.062080000000     0.291650000000     0.256280000000    -0.0943384  
C489     C      0.975460000000     0.233050000000     0.208530000000    -0.0166938  
C490     C      0.935860000000     0.197310000000     0.188050000000    -0.105163   
C491     C      0.983430000000     0.251930000000     0.233520000000    -0.0290449  
C492     C      0.912310000000     0.187790000000     0.174250000000     0.077148   
C493     C      0.918150000000     0.227940000000     0.167150000000     0.152021   
C494     C      0.006970000000     0.262380000000     0.247820000000    -0.0418254  
C495     C      0.048630000000     0.266220000000     0.251380000000     0.0480372  
C496     C      0.950670000000     0.222530000000     0.192640000000     0.0665458  
C497     C      0.910930000000     0.246120000000     0.153660000000    -0.215415   
C498     C      0.274540000000     0.355740000000     0.343720000000    -0.131805   
C499     C      0.417090000000     0.468470000000     0.437850000000     0.0728812  
C500     C      0.420660000000     0.432910000000     0.431970000000     0.0733916  
C501     C      0.393180000000     0.455890000000     0.424800000000    -0.0951017  
C502     C      0.338780000000     0.421120000000     0.413380000000    -0.0377185  
C503     C      0.315320000000     0.408910000000     0.398640000000    -0.0330227  
C504     C      0.357700000000     0.417920000000     0.399540000000    -0.00653572 
C505     C      0.396800000000     0.419780000000     0.418750000000    -0.0948004  
C506     C      0.310200000000     0.393220000000     0.369710000000    -0.0144701  
C507     C      0.271830000000     0.392210000000     0.349510000000    -0.104738   
C508     C      0.329100000000     0.389960000000     0.355940000000    -0.0329763  
C509     C      0.248130000000     0.379610000000     0.335900000000     0.0766678  
C510     C      0.250700000000     0.343340000000     0.329550000000     0.151265   
C511     C      0.352570000000     0.402160000000     0.370680000000    -0.0377211  
C512     C      0.382800000000     0.431300000000     0.414730000000     0.0489181  
C513     C      0.285210000000     0.380230000000     0.354100000000     0.0651627  
C514     C      0.241340000000     0.317230000000     0.317420000000    -0.216162   
C515     C      0.492700000000     0.972830000000     0.628640000000    -0.133406   
C516     C      0.513230000000     0.023860000000     0.846320000000     0.074432   
C517     C      0.517060000000     0.988500000000     0.853680000000     0.0742081  
C518     C      0.514630000000     0.022350000000     0.809930000000    -0.0957225  
C519     C      0.535300000000     0.998780000000     0.738920000000    -0.0378793  
C520     C      0.534520000000     0.996140000000     0.702350000000    -0.0333304  
C521     C      0.516620000000     0.000500000000     0.756540000000    -0.00727282 
C522     C      0.519000000000     0.986740000000     0.817340000000    -0.0952625  
C523     C      0.514750000000     0.994590000000     0.683100000000    -0.0154056  
C524     C      0.532560000000     0.008440000000     0.623300000000    -0.105996   
C525     C      0.495980000000     0.996050000000     0.700830000000    -0.0330815  
C526     C      0.529820000000     0.007030000000     0.586880000000     0.0765079  
C527     C      0.490520000000     0.971170000000     0.591830000000     0.152485   
C528     C      0.497010000000     0.999190000000     0.737180000000    -0.037681   
C529     C      0.517220000000     0.003470000000     0.795100000000     0.0498847  
C530     C      0.513540000000     0.991710000000     0.644500000000     0.0663517  
C531     C      0.467470000000     0.949510000000     0.577280000000    -0.216677   
C532     C      0.493680000000     0.029480000000     0.125000000000    -0.133361   
C533     C      0.473630000000     0.983890000000     0.350560000000     0.073936   
C534     C      0.507380000000     0.024400000000     0.351370000000     0.0737247  
C535     C      0.471650000000     0.984980000000     0.314160000000    -0.0943441  
C536     C      0.464430000000     0.993960000000     0.238390000000    -0.0372825  
C537     C      0.463800000000     0.993980000000     0.201660000000    -0.0334973  
C538     C      0.486810000000     0.007340000000     0.256610000000    -0.00662926 
C539     C      0.505550000000     0.026340000000     0.315070000000    -0.0945983  
C540     C      0.485410000000     0.007840000000     0.182430000000    -0.0150883  
C541     C      0.477590000000     0.985980000000     0.125260000000    -0.105549   
C542     C      0.507650000000     0.021610000000     0.200330000000    -0.0333072  
C543     C      0.479740000000     0.986540000000     0.088780000000     0.0780184  
C544     C      0.495350000000     0.029710000000     0.088130000000     0.152908   
C545     C      0.508410000000     0.021160000000     0.236950000000    -0.0372112  
C546     C      0.487840000000     0.006310000000     0.295740000000     0.0487846  
C547     C      0.485070000000     0.007660000000     0.143660000000     0.0664714  
C548     C      0.506160000000     0.054510000000     0.070360000000    -0.217341   
C549     C      0.727080000000     0.139830000000     0.091330000000    -0.131587   
C550     C      0.582060000000     0.028780000000     0.002380000000     0.0739885  
C551     C      0.582830000000     0.066730000000     0.998150000000     0.0728961  
C552     C      0.606020000000     0.040600000000     0.015310000000    -0.0949263  
C553     C      0.661340000000     0.073060000000     0.024970000000    -0.0376769  
C554     C      0.684700000000     0.084830000000     0.040050000000    -0.0327688  
C555     C      0.643410000000     0.078650000000     0.036090000000    -0.00663331 
C556     C      0.606720000000     0.079100000000     0.011330000000    -0.0954716  
C557     C      0.690620000000     0.102320000000     0.066810000000    -0.0143841  
C558     C      0.728110000000     0.102320000000     0.089220000000    -0.104607   
C559     C      0.672590000000     0.107780000000     0.078000000000    -0.0330295  
C560     C      0.751780000000     0.114600000000     0.102940000000     0.0766727  
C561     C      0.750870000000     0.151920000000     0.105750000000     0.151595   
C562     C      0.649300000000     0.096160000000     0.062720000000    -0.0379247  
C563     C      0.618500000000     0.065990000000     0.020440000000     0.049283   
C564     C      0.715570000000     0.114960000000     0.082710000000     0.0651335  
C565     C      0.761310000000     0.178730000000     0.114970000000    -0.216146   
C566     C      0.193590000000     0.840250000000     0.647540000000    -0.133393   
C567     C      0.156900000000     0.847570000000     0.423900000000     0.0739041  
C568     C      0.189950000000     0.839660000000     0.422500000000     0.0730673  
C569     C      0.159720000000     0.851510000000     0.460110000000    -0.094226   
C570     C      0.158410000000     0.843620000000     0.538130000000    -0.03718    
C571     C      0.159980000000     0.844950000000     0.574730000000    -0.0331213  
C572     C      0.179490000000     0.850920000000     0.517430000000    -0.00636759 
C573     C      0.192920000000     0.842930000000     0.458850000000    -0.0941527  
C574     C      0.182550000000     0.853120000000     0.591600000000    -0.0149293  
C575     C      0.174090000000     0.864670000000     0.650490000000    -0.106238   
C576     C      0.203670000000     0.860490000000     0.571250000000    -0.0335476  
C577     C      0.173630000000     0.862760000000     0.687000000000     0.0773794  
C578     C      0.192850000000     0.838410000000     0.684410000000     0.153524   
C579     C      0.202220000000     0.859650000000     0.534560000000    -0.0375814  
C580     C      0.177550000000     0.848700000000     0.478330000000     0.0486154  
C581     C      0.183710000000     0.852960000000     0.630410000000     0.0661275  
C582     C      0.205090000000     0.825420000000     0.701060000000    -0.218631   
C583     C      0.157580000000     0.800620000000     0.147030000000    -0.133341   
C584     C      0.145480000000     0.837660000000     0.924750000000     0.0734522  
C585     C      0.154490000000     0.805400000000     0.921750000000     0.0736084  
C586     C      0.142230000000     0.834610000000     0.961080000000    -0.0945268  
C587     C      0.151360000000     0.835550000000     0.038850000000    -0.0371969  
C588     C      0.150630000000     0.833640000000     0.075430000000    -0.0332599  
C589     C      0.144370000000     0.814770000000     0.017600000000    -0.00645645 
C590     C      0.151930000000     0.802230000000     0.958110000000    -0.0942539  
C591     C      0.143400000000     0.811050000000     0.091700000000    -0.0149451  
C592     C      0.130970000000     0.817630000000     0.150990000000    -0.106123   
C593     C      0.136410000000     0.790260000000     0.070820000000    -0.0334985  
C594     C      0.132810000000     0.817650000000     0.187460000000     0.0780666  
C595     C      0.159350000000     0.800920000000     0.183920000000     0.153528   
C596     C      0.136610000000     0.792020000000     0.034170000000    -0.0374936  
C597     C      0.145930000000     0.817050000000     0.978480000000     0.0486154  
C598     C      0.143770000000     0.809490000000     0.130430000000     0.0662681  
C599     C      0.173710000000     0.789930000000     0.199970000000    -0.218719   
C600     C      0.273310000000     0.911380000000     0.848190000000    -0.132185   
C601     C      0.418120000000     0.947100000000     0.941080000000     0.0739531  
C602     C      0.419140000000     0.985070000000     0.935030000000     0.0738208  
C603     C      0.394040000000     0.934550000000     0.928640000000    -0.0947446  
C604     C      0.350220000000     0.915400000000     0.879670000000    -0.0376128  
C605     C      0.326710000000     0.903520000000     0.865080000000    -0.0330565  
C606     C      0.357090000000     0.934610000000     0.903870000000    -0.00643997 
C607     C      0.395050000000     0.973090000000     0.922550000000    -0.0946265  
C608     C      0.309480000000     0.910550000000     0.874340000000    -0.0145127  
C609     C      0.271680000000     0.872670000000     0.853980000000    -0.104943   
C610     C      0.316310000000     0.929680000000     0.898680000000    -0.032899   
C611     C      0.248000000000     0.861140000000     0.840230000000     0.0761393  
C612     C      0.249520000000     0.899490000000     0.833820000000     0.152186   
C613     C      0.339840000000     0.941580000000     0.913250000000    -0.0377787  
C614     C      0.382290000000     0.947550000000     0.918770000000     0.0491541  
C615     C      0.284490000000     0.898020000000     0.858690000000     0.0651833  
C616     C      0.239710000000     0.915750000000     0.821020000000    -0.217195   
C617     C      0.789740000000     0.644540000000     0.980920000000    -0.132392   
C618     C      0.816720000000     0.675910000000     0.751870000000     0.0742813  
C619     C      0.817410000000     0.638700000000     0.756130000000     0.0742331  
C620     C      0.813620000000     0.676110000000     0.788170000000    -0.0948755  
C621     C      0.824150000000     0.680440000000     0.866230000000    -0.0374074  
C622     C      0.823620000000     0.681020000000     0.902890000000    -0.0329933  
C623     C      0.811160000000     0.658120000000     0.848010000000    -0.00634519 
C624     C      0.814460000000     0.638400000000     0.792510000000    -0.0944431  
C625     C      0.810190000000     0.659290000000     0.922280000000    -0.0144078  
C626     C      0.832440000000     0.674880000000     0.979410000000    -0.104988   
C627     C      0.796840000000     0.637020000000     0.904050000000    -0.0328293  
C628     C      0.833100000000     0.674000000000     0.015930000000     0.0770477  
C629     C      0.790660000000     0.644100000000     0.017850000000     0.152209   
C630     C      0.797280000000     0.636450000000     0.867370000000    -0.0377123  
C631     C      0.812820000000     0.657400000000     0.809080000000     0.0493048  
C632     C      0.810750000000     0.659680000000     0.961370000000     0.0652816  
C633     C      0.766640000000     0.628370000000     0.036830000000    -0.217118   
C634     C      0.817260000000     0.631940000000     0.296160000000    -0.132866   
C635     C      0.850590000000     0.646090000000     0.518400000000     0.0743137  
C636     C      0.847510000000     0.682040000000     0.514050000000     0.0745433  
C637     C      0.851650000000     0.644860000000     0.481840000000    -0.0952347  
C638     C      0.864720000000     0.656010000000     0.402890000000    -0.0378274  
C639     C      0.862310000000     0.653040000000     0.366390000000    -0.0332521  
C640     C      0.847690000000     0.659410000000     0.422360000000    -0.00691785 
C641     C      0.848080000000     0.681110000000     0.477460000000    -0.0954414  
C642     C      0.842520000000     0.652870000000     0.349010000000    -0.0151808  
C643     C      0.858560000000     0.664580000000     0.287950000000    -0.105739   
C644     C      0.825470000000     0.656140000000     0.368550000000    -0.0330557  
C645     C      0.854600000000     0.662820000000     0.251780000000     0.0765848  
C646     C      0.813700000000     0.629960000000     0.259540000000     0.151336   
C647     C      0.828140000000     0.659570000000     0.404830000000    -0.0377176  
C648     C      0.849700000000     0.662110000000     0.461010000000     0.0499516  
C649     C      0.839570000000     0.649530000000     0.310500000000     0.066022   
C650     C      0.788770000000     0.610260000000     0.246700000000    -0.215816   
C651     C      0.606000000000     0.569760000000     0.517860000000    -0.131845   
C652     C      0.751780000000     0.602240000000     0.604150000000     0.0737804  
C653     C      0.752950000000     0.640430000000     0.601630000000     0.0739463  
C654     C      0.727650000000     0.590200000000     0.591770000000    -0.0945651  
C655     C      0.683480000000     0.572960000000     0.543650000000    -0.0377343  
C656     C      0.659850000000     0.561680000000     0.529490000000    -0.0331172  
C657     C      0.690630000000     0.591270000000     0.569400000000    -0.00645597 
C658     C      0.728830000000     0.628970000000     0.589330000000    -0.0946107  
C659     C      0.642750000000     0.568400000000     0.540790000000    -0.0145353  
C660     C      0.604840000000     0.531140000000     0.519400000000    -0.105108   
C661     C      0.649880000000     0.586680000000     0.566620000000    -0.0330179  
C662     C      0.581080000000     0.519910000000     0.506060000000     0.0757539  
C663     C      0.582030000000     0.558170000000     0.504000000000     0.151426   
C664     C      0.673540000000     0.597990000000     0.580730000000    -0.0377667  
C665     C      0.715950000000     0.603590000000     0.583890000000     0.049144   
C666     C      0.617530000000     0.556280000000     0.525850000000     0.0648859  
C667     C      0.571680000000     0.574590000000     0.494530000000    -0.216889   
C668     C      0.057770000000     0.794850000000     0.762490000000    -0.131195   
C669     C      0.915470000000     0.682310000000     0.669060000000     0.0741532  
C670     C      0.915560000000     0.720020000000     0.668990000000     0.0745634  
C671     C      0.939340000000     0.693890000000     0.682490000000    -0.0949288  
C672     C      0.994870000000     0.727810000000     0.693480000000    -0.0335355  
C673     C      0.018320000000     0.740240000000     0.708410000000    -0.0369386  
C674     C      0.976010000000     0.731390000000     0.706480000000    -0.00862352 
C675     C      0.939270000000     0.732090000000     0.682800000000    -0.095315   
C676     C      0.023320000000     0.756330000000     0.736860000000    -0.0119888  
C677     C      0.063570000000     0.760290000000     0.755160000000    -0.103675   
C678     C      0.004160000000     0.759290000000     0.750390000000    -0.037066   
C679     C      0.087360000000     0.774280000000     0.768220000000     0.075914   
C680     C      0.081600000000     0.808570000000     0.776320000000     0.151635   
C681     C      0.980860000000     0.747100000000     0.735240000000    -0.0336219  
C682     C      0.951320000000     0.718970000000     0.690110000000     0.0505835  
C683     C      0.048530000000     0.770590000000     0.751740000000     0.0638431  
C684     C      0.089150000000     0.834240000000     0.788820000000    -0.215749   
H1       H      0.662340000000     0.893440000000     0.769280000000     0.0247911  
H2       H      0.820420000000     0.086810000000     0.671060000000     0.0241991  
H3       H      0.702280000000     0.958370000000     0.695130000000     0.0370055  
H4       H      0.779320000000     0.024260000000     0.747440000000     0.0358731  
H5       H      0.800860000000     0.045720000000     0.693770000000     0.0541372  
H6       H      0.759870000000     0.983240000000     0.772830000000     0.0370198  
H7       H      0.730530000000     0.040540000000     0.683220000000     0.0597001  
H8       H      0.680690000000     0.935130000000     0.747410000000     0.0518007  
H9       H      0.752320000000     0.942560000000     0.758270000000     0.0517339  
H10      H      0.721730000000     0.999390000000     0.669740000000     0.0346524  
H11      H      0.733510000000     0.901100000000     0.780560000000     0.0245851  
H12      H      0.750500000000     0.091550000000     0.626180000000     0.0808549  
H13      H      0.725680000000     0.068860000000     0.651160000000     0.0673114  
H14      H      0.745640000000     0.097750000000     0.671460000000     0.083843   
H15      H      0.828460000000     0.232050000000     0.610980000000     0.0237984  
H16      H      0.989940000000     0.418860000000     0.501280000000     0.0233729  
H17      H      0.878830000000     0.314840000000     0.601260000000     0.0364765  
H18      H      0.941190000000     0.334760000000     0.508280000000     0.0353686  
H19      H      0.970280000000     0.378220000000     0.525540000000     0.0540578  
H20      H      0.920680000000     0.293870000000     0.534190000000     0.0367905  
H21      H      0.900240000000     0.373610000000     0.515780000000     0.0598048  
H22      H      0.849550000000     0.273380000000     0.588080000000     0.051072   
H23      H      0.917070000000     0.271340000000     0.586510000000     0.0516921  
H24      H      0.899010000000     0.355510000000     0.574710000000     0.035529   
H25      H      0.895230000000     0.229670000000     0.608370000000     0.0245347  
H26      H      0.918500000000     0.423020000000     0.458330000000     0.0854684  
H27      H      0.895100000000     0.402710000000     0.487500000000     0.0682566  
H28      H      0.917250000000     0.432290000000     0.503460000000     0.0850188  
H29      H      0.156210000000     0.752030000000     0.330640000000     0.0229857  
H30      H      0.997890000000     0.562610000000     0.437590000000     0.0264595  
H31      H      0.117680000000     0.689390000000     0.408440000000     0.0368179  
H32      H      0.035650000000     0.627410000000     0.364290000000     0.0352506  
H33      H      0.017090000000     0.604040000000     0.416900000000     0.0532545  
H34      H      0.055270000000     0.669040000000     0.340890000000     0.0367357  
H35      H      0.086720000000     0.607140000000     0.414960000000     0.0592049  
H36      H      0.135840000000     0.710400000000     0.352480000000     0.0510819  
H37      H      0.068100000000     0.711680000000     0.359120000000     0.0517776  
H38      H      0.097990000000     0.647930000000     0.432210000000     0.0346653  
H39      H      0.089010000000     0.753440000000     0.336890000000     0.024485   
H40      H      0.067420000000     0.546620000000     0.421120000000     0.0839838  
H41      H      0.092150000000     0.575860000000     0.433620000000     0.0676521  
H42      H      0.071660000000     0.556770000000     0.466890000000     0.0850473  
H43      H      0.569290000000     0.561260000000     0.939830000000     0.0244536  
H44      H      0.600630000000     0.751830000000     0.835750000000     0.0243687  
H45      H      0.596020000000     0.626780000000     0.866430000000     0.0370685  
H46      H      0.580400000000     0.690910000000     0.914580000000     0.0357268  
H47      H      0.580450000000     0.711040000000     0.859220000000     0.0541708  
H48      H      0.559130000000     0.649830000000     0.939740000000     0.0370025  
H49      H      0.648090000000     0.710060000000     0.855810000000     0.0601216  
H50      H      0.592700000000     0.603160000000     0.918890000000     0.0514988  
H51      H      0.527370000000     0.609100000000     0.923660000000     0.051754   
H52      H      0.617380000000     0.667940000000     0.841370000000     0.035058   
H53      H      0.504660000000     0.567450000000     0.945150000000     0.0247626  
H54      H      0.688030000000     0.768620000000     0.844660000000     0.0853145  
H55      H      0.681980000000     0.739810000000     0.826980000000     0.0690859  
H56      H      0.678940000000     0.760670000000     0.798800000000     0.0861146  
H57      H      0.321010000000     0.085600000000     0.164920000000     0.0245169  
H58      H      0.162080000000     0.896490000000     0.272650000000     0.0240271  
H59      H      0.280580000000     0.024220000000     0.243370000000     0.0372129  
H60      H      0.200980000000     0.959430000000     0.195930000000     0.0353661  
H61      H      0.180980000000     0.937480000000     0.249820000000     0.0539388  
H62      H      0.220640000000     0.000310000000     0.169830000000     0.0368765  
H63      H      0.251500000000     0.942610000000     0.255120000000     0.0599076  
H64      H      0.300780000000     0.044380000000     0.188370000000     0.0517331  
H65      H      0.231540000000     0.042810000000     0.183520000000     0.0517756  
H66      H      0.260910000000     0.983500000000     0.269590000000     0.0349634  
H67      H      0.252310000000     0.084070000000     0.159610000000     0.024522   
H68      H      0.236100000000     0.884900000000     0.266130000000     0.0842219  
H69      H      0.257440000000     0.914130000000     0.284190000000     0.0684262  
H70      H      0.233930000000     0.892370000000     0.311900000000     0.0856443  
H71      H      0.488110000000     0.416370000000     0.997270000000     0.0244115  
H72      H      0.324340000000     0.227730000000     0.097800000000     0.0242559  
H73      H      0.435530000000     0.334170000000     0.000410000000     0.0364046  
H74      H      0.371980000000     0.312570000000     0.092080000000     0.0355975  
H75      H      0.343180000000     0.268610000000     0.074070000000     0.0541373  
H76      H      0.393230000000     0.354120000000     0.068220000000     0.0369516  
H77      H      0.414040000000     0.275140000000     0.083960000000     0.0600589  
H78      H      0.465280000000     0.374520000000     0.017600000000     0.0511978  
H79      H      0.399190000000     0.379240000000     0.017530000000     0.0514493  
H80      H      0.414680000000     0.292910000000     0.024880000000     0.0353102  
H81      H      0.422820000000     0.421510000000     0.998140000000     0.0245219  
H82      H      0.399310000000     0.217490000000     0.096040000000     0.0846901  
H83      H      0.420020000000     0.247020000000     0.113740000000     0.0681966  
H84      H      0.396300000000     0.225380000000     0.141280000000     0.0854241  
H85      H      0.627870000000     0.799840000000     0.696050000000     0.0244456  
H86      H      0.703740000000     0.834680000000     0.409080000000     0.0226502  
H87      H      0.636540000000     0.768120000000     0.586310000000     0.0369497  
H88      H      0.698510000000     0.842800000000     0.524250000000     0.0352216  
H89      H      0.705840000000     0.829670000000     0.471260000000     0.0535204  
H90      H      0.698830000000     0.841340000000     0.588100000000     0.038105   
H91      H      0.627300000000     0.785770000000     0.475500000000     0.0592847  
H92      H      0.628520000000     0.795410000000     0.632750000000     0.052322   
H93      H      0.704480000000     0.814910000000     0.638790000000     0.0521173  
H94      H      0.636910000000     0.768740000000     0.522180000000     0.0341486  
H95      H      0.703200000000     0.818650000000     0.702250000000     0.0236412  
H96      H      0.615060000000     0.771910000000     0.390000000000     0.0851304  
H97      H      0.602950000000     0.779050000000     0.427700000000     0.0685988  
H98      H      0.615420000000     0.801030000000     0.393180000000     0.0850307  
H99      H      0.704820000000     0.849560000000     0.912750000000     0.0238772  
H100     H      0.626560000000     0.818120000000     0.198650000000     0.0229808  
H101     H      0.695400000000     0.882670000000     0.021220000000     0.0374767  
H102     H      0.633300000000     0.808610000000     0.084330000000     0.0354306  
H103     H      0.625080000000     0.822250000000     0.136130000000     0.0536342  
H104     H      0.633690000000     0.809110000000     0.020420000000     0.0380832  
H105     H      0.703550000000     0.867190000000     0.133530000000     0.0593066  
H106     H      0.703900000000     0.854360000000     0.976010000000     0.0523168  
H107     H      0.628170000000     0.835480000000     0.968750000000     0.0526126  
H108     H      0.694270000000     0.883040000000     0.085310000000     0.0342804  
H109     H      0.629720000000     0.831410000000     0.905450000000     0.0245954  
H110     H      0.715180000000     0.853620000000     0.216620000000     0.0852109  
H111     H      0.727430000000     0.875650000000     0.182140000000     0.0683283  
H112     H      0.714370000000     0.882180000000     0.219270000000     0.0836565  
H113     H      0.732970000000     0.819480000000     0.280690000000     0.0224196  
H114     H      0.755520000000     0.657150000000     0.168020000000     0.0215349  
H115     H      0.762930000000     0.767000000000     0.271800000000     0.0363911  
H116     H      0.721860000000     0.707510000000     0.175070000000     0.035269   
H117     H      0.734760000000     0.677110000000     0.192030000000     0.0532751  
H118     H      0.701740000000     0.728350000000     0.200850000000     0.0368441  
H119     H      0.801300000000     0.746410000000     0.186970000000     0.0599807  
H120     H      0.752520000000     0.797580000000     0.258380000000     0.0506516  
H121     H      0.681880000000     0.731650000000     0.252510000000     0.051417   
H122     H      0.783190000000     0.746520000000     0.245420000000     0.0353523  
H123     H      0.662760000000     0.754350000000     0.273890000000     0.0240996  
H124     H      0.833020000000     0.728410000000     0.130280000000     0.0857309  
H125     H      0.835950000000     0.751280000000     0.160370000000     0.0685761  
H126     H      0.842200000000     0.728160000000     0.175810000000     0.0850735  
H127     H      0.570200000000     0.993250000000     0.439540000000     0.0241312  
H128     H      0.597640000000     0.832470000000     0.332950000000     0.0218747  
H129     H      0.604000000000     0.943490000000     0.433680000000     0.0363591  
H130     H      0.562860000000     0.881060000000     0.340400000000     0.035342   
H131     H      0.576600000000     0.852330000000     0.356040000000     0.0532274  
H132     H      0.541840000000     0.901070000000     0.365870000000     0.0370058  
H133     H      0.643290000000     0.921680000000     0.352470000000     0.0598674  
H134     H      0.591060000000     0.972570000000     0.417240000000     0.0513865  
H135     H      0.522840000000     0.903920000000     0.420210000000     0.0512895  
H136     H      0.625020000000     0.923490000000     0.408180000000     0.0350835  
H137     H      0.502350000000     0.925250000000     0.441970000000     0.0234415  
H138     H      0.675570000000     0.902600000000     0.297180000000     0.0849675  
H139     H      0.677750000000     0.926430000000     0.324650000000     0.0685524  
H140     H      0.684370000000     0.904270000000     0.343290000000     0.0842149  
H141     H      0.965810000000     0.509290000000     0.568090000000     0.02352    
H142     H      0.961840000000     0.463620000000     0.856730000000     0.0236677  
H143     H      0.990110000000     0.539890000000     0.683680000000     0.0372465  
H144     H      0.996200000000     0.474770000000     0.748720000000     0.0366472  
H145     H      0.962370000000     0.466560000000     0.793650000000     0.0551112  
H146     H      0.999490000000     0.476480000000     0.684770000000     0.0381164  
H147     H      0.015260000000     0.543240000000     0.799890000000     0.0606634  
H148     H      0.964760000000     0.512330000000     0.631680000000     0.0522144  
H149     H      0.029630000000     0.505860000000     0.639150000000     0.0520093  
H150     H      0.986860000000     0.538200000000     0.748000000000     0.0356022  
H151     H      0.030370000000     0.503090000000     0.575730000000     0.0234242  
H152     H      0.034810000000     0.548780000000     0.879890000000     0.0846618  
H153     H      0.023070000000     0.564050000000     0.853080000000     0.0690115  
H154     H      0.006740000000     0.548810000000     0.891790000000     0.0850065  
H155     H      0.963300000000     0.442180000000     0.067270000000     0.0241594  
H156     H      0.962050000000     0.483750000000     0.356830000000     0.0229307  
H157     H      0.954070000000     0.454480000000     0.181350000000     0.0367837  
H158     H      0.030300000000     0.484890000000     0.251260000000     0.034857   
H159     H      0.962080000000     0.480450000000     0.293970000000     0.0540948  
H160     H      0.032600000000     0.485310000000     0.187410000000     0.0363856  
H161     H      0.015950000000     0.457770000000     0.300930000000     0.0596489  
H162     H      0.962230000000     0.437140000000     0.130450000000     0.0513088  
H163     H      0.028440000000     0.507330000000     0.139090000000     0.0517505  
H164     H      0.951630000000     0.452880000000     0.245200000000     0.034862   
H165     H      0.029350000000     0.511480000000     0.075870000000     0.024396   
H166     H      0.008640000000     0.445160000000     0.392690000000     0.0840979  
H167     H      0.025160000000     0.446540000000     0.354090000000     0.0679231  
H168     H      0.036280000000     0.473560000000     0.380520000000     0.0823344  
H169     H      0.921030000000     0.489200000000     0.993670000000     0.0244075  
H170     H      0.889820000000     0.646700000000     0.104290000000     0.02442    
H171     H      0.885120000000     0.536860000000     0.003960000000     0.0364997  
H172     H      0.924640000000     0.597950000000     0.099300000000     0.0357341  
H173     H      0.910950000000     0.626920000000     0.081400000000     0.0545296  
H174     H      0.946280000000     0.578640000000     0.073730000000     0.0372607  
H175     H      0.844770000000     0.557300000000     0.086720000000     0.0595084  
H176     H      0.898840000000     0.508260000000     0.017080000000     0.0512364  
H177     H      0.966350000000     0.577620000000     0.020550000000     0.0516891  
H178     H      0.863370000000     0.556000000000     0.029930000000     0.03515    
H179     H      0.988100000000     0.557880000000     0.998000000000     0.0235945  
H180     H      0.803510000000     0.575690000000     0.095910000000     0.0830098  
H181     H      0.809520000000     0.552380000000     0.111220000000     0.0671504  
H182     H      0.812170000000     0.575020000000     0.141600000000     0.0834741  
H183     H      0.284830000000     0.144920000000     0.024100000000     0.0244431  
H184     H      0.304050000000     0.116400000000     0.731710000000     0.0240352  
H185     H      0.316830000000     0.171760000000     0.915510000000     0.0377289  
H186     H      0.325760000000     0.108510000000     0.850000000000     0.0356447  
H187     H      0.298780000000     0.109670000000     0.794280000000     0.0547437  
H188     H      0.320570000000     0.105130000000     0.914160000000     0.0369968  
H189     H      0.360170000000     0.181180000000     0.812740000000     0.0607527  
H190     H      0.284620000000     0.141710000000     0.960550000000     0.0523636  
H191     H      0.348090000000     0.132770000000     0.966260000000     0.0520227  
H192     H      0.322360000000     0.175280000000     0.851820000000     0.0363182  
H193     H      0.348110000000     0.136400000000     0.029790000000     0.0236333  
H194     H      0.365580000000     0.206060000000     0.732390000000     0.0849364  
H195     H      0.383630000000     0.206700000000     0.768940000000     0.0681739  
H196     H      0.385270000000     0.192400000000     0.729580000000     0.0853678  
H197     H      0.366310000000     0.181170000000     0.236710000000     0.0224995  
H198     H      0.295350000000     0.151870000000     0.527220000000     0.0233242  
H199     H      0.356080000000     0.163960000000     0.350510000000     0.0363982  
H200     H      0.307390000000     0.193450000000     0.415230000000     0.0359425  
H201     H      0.293850000000     0.154750000000     0.463960000000     0.0552523  
H202     H      0.307420000000     0.194040000000     0.351020000000     0.0359545  
H203     H      0.371580000000     0.203070000000     0.461280000000     0.060806   
H204     H      0.368860000000     0.186570000000     0.299640000000     0.0505163  
H205     H      0.293500000000     0.170140000000     0.301020000000     0.0511791  
H206     H      0.357090000000     0.165020000000     0.414340000000     0.0363048  
H207     H      0.292220000000     0.166510000000     0.237800000000     0.0243812  
H208     H      0.384380000000     0.190980000000     0.545250000000     0.0850986  
H209     H      0.395850000000     0.212410000000     0.509990000000     0.0684343  
H210     H      0.382420000000     0.218970000000     0.546630000000     0.085077   
H211     H      0.404350000000     0.159510000000     0.610140000000     0.0216086  
H212     H      0.431900000000     0.998460000000     0.503180000000     0.0229311  
H213     H      0.436840000000     0.108890000000     0.602940000000     0.0360505  
H214     H      0.395400000000     0.046450000000     0.509740000000     0.035444   
H215     H      0.410190000000     0.017510000000     0.527310000000     0.0536227  
H216     H      0.374730000000     0.066970000000     0.534710000000     0.0367154  
H217     H      0.474870000000     0.088080000000     0.518340000000     0.0598563  
H218     H      0.424850000000     0.138220000000     0.588770000000     0.0502186  
H219     H      0.355330000000     0.070830000000     0.586130000000     0.0514537  
H220     H      0.457640000000     0.088720000000     0.577310000000     0.035174   
H221     H      0.335290000000     0.092840000000     0.606420000000     0.0245079  
H222     H      0.506560000000     0.070080000000     0.460590000000     0.0852741  
H223     H      0.508780000000     0.093830000000     0.488200000000     0.0680739  
H224     H      0.517380000000     0.072890000000     0.505870000000     0.084293   
H225     H      0.997000000000     0.420890000000     0.932610000000     0.0263027  
H226     H      0.159830000000     0.393590000000     0.833380000000     0.0236987  
H227     H      0.040220000000     0.402220000000     0.855860000000     0.0366649  
H228     H      0.119070000000     0.417590000000     0.907410000000     0.0354004  
H229     H      0.140450000000     0.415700000000     0.854770000000     0.0537943  
H230     H      0.098300000000     0.438170000000     0.932160000000     0.0368764  
H231     H      0.070090000000     0.350460000000     0.847240000000     0.0596634  
H232     H      0.018550000000     0.400980000000     0.909980000000     0.0507377  
H233     H      0.086750000000     0.469340000000     0.917820000000     0.0514739  
H234     H      0.060990000000     0.381850000000     0.831000000000     0.034639   
H235     H      0.064670000000     0.488740000000     0.940850000000     0.0241264  
H236     H      0.085580000000     0.308130000000     0.837800000000     0.0840659  
H237     H      0.064700000000     0.316230000000     0.818440000000     0.0679906  
H238     H      0.088770000000     0.318000000000     0.791980000000     0.0852497  
H239     H      0.264770000000     0.168490000000     0.656420000000     0.0245095  
H240     H      0.232350000000     0.325290000000     0.766860000000     0.0231804  
H241     H      0.231190000000     0.217860000000     0.664480000000     0.036323   
H242     H      0.271350000000     0.279530000000     0.758950000000     0.0352497  
H243     H      0.255090000000     0.307570000000     0.742150000000     0.0539645  
H244     H      0.293040000000     0.260360000000     0.732890000000     0.0364387  
H245     H      0.192000000000     0.235870000000     0.750930000000     0.0599319  
H246     H      0.243850000000     0.189140000000     0.678240000000     0.0512608  
H247     H      0.312830000000     0.257100000000     0.681250000000     0.0510772  
H248     H      0.209390000000     0.236620000000     0.691230000000     0.035351   
H249     H      0.333380000000     0.235630000000     0.660450000000     0.0227677  
H250     H      0.148160000000     0.249740000000     0.763890000000     0.0843549  
H251     H      0.157220000000     0.228710000000     0.779680000000     0.0679411  
H252     H      0.158930000000     0.251460000000     0.809010000000     0.0851519  
H253     H      0.456260000000     0.485510000000     0.865500000000     0.0245127  
H254     H      0.499280000000     0.457110000000     0.572240000000     0.0229307  
H255     H      0.441320000000     0.458050000000     0.752410000000     0.0361425  
H256     H      0.518430000000     0.485180000000     0.686020000000     0.0364283  
H257     H      0.496410000000     0.451800000000     0.635220000000     0.0545892  
H258     H      0.519470000000     0.485220000000     0.749890000000     0.0367614  
H259     H      0.462360000000     0.496070000000     0.642600000000     0.0606755  
H260     H      0.453020000000     0.482190000000     0.802300000000     0.0510444  
H261     H      0.509740000000     0.462600000000     0.801000000000     0.0511071  
H262     H      0.440840000000     0.459500000000     0.688330000000     0.0353921  
H263     H      0.513470000000     0.467590000000     0.864020000000     0.0243437  
H264     H      0.449630000000     0.494540000000     0.550390000000     0.085114   
H265     H      0.447540000000     0.505690000000     0.592430000000     0.0691218  
H266     H      0.474920000000     0.523180000000     0.567100000000     0.0836713  
H267     H      0.537000000000     0.498820000000     0.074700000000     0.0242827  
H268     H      0.499620000000     0.532350000000     0.368350000000     0.0225422  
H269     H      0.553840000000     0.528700000000     0.186150000000     0.0358268  
H270     H      0.478170000000     0.502070000000     0.255920000000     0.0367166  
H271     H      0.501180000000     0.536660000000     0.305220000000     0.0545266  
H272     H      0.475600000000     0.500590000000     0.192110000000     0.0368265  
H273     H      0.535720000000     0.492860000000     0.297420000000     0.060605   
H274     H      0.541280000000     0.503300000000     0.137660000000     0.0507125  
H275     H      0.483770000000     0.521780000000     0.139790000000     0.0513325  
H276     H      0.555850000000     0.528700000000     0.250180000000     0.0349657  
H277     H      0.479020000000     0.515640000000     0.076970000000     0.0244698  
H278     H      0.524970000000     0.466910000000     0.373340000000     0.0844192  
H279     H      0.552010000000     0.484600000000     0.347400000000     0.0688276  
H280     H      0.550100000000     0.495880000000     0.389440000000     0.0845228  
H281     H      0.803160000000     0.173630000000     0.748080000000     0.0238319  
H282     H      0.838610000000     0.143560000000     0.030110000000     0.0240436  
H283     H      0.832250000000     0.206530000000     0.857020000000     0.0363982  
H284     H      0.866470000000     0.160350000000     0.917370000000     0.0352378  
H285     H      0.840370000000     0.145040000000     0.967260000000     0.0541556  
H286     H      0.862680000000     0.158350000000     0.853760000000     0.0367761  
H287     H      0.862610000000     0.221560000000     0.969730000000     0.0593952  
H288     H      0.808960000000     0.179050000000     0.810980000000     0.0515021  
H289     H      0.878110000000     0.180800000000     0.800750000000     0.0514756  
H290     H      0.834720000000     0.207350000000     0.920890000000     0.0347924  
H291     H      0.871340000000     0.174520000000     0.738140000000     0.0245281  
H292     H      0.877290000000     0.229610000000     0.060880000000     0.0810464  
H293     H      0.874620000000     0.243480000000     0.021660000000     0.0673249  
H294     H      0.848340000000     0.228040000000     0.049620000000     0.0816668  
H295     H      0.821460000000     0.195520000000     0.247740000000     0.0226325  
H296     H      0.849630000000     0.153540000000     0.528550000000     0.0239529  
H297     H      0.777580000000     0.116110000000     0.351880000000     0.0366213  
H298     H      0.842410000000     0.183170000000     0.423070000000     0.0364376  
H299     H      0.847960000000     0.154070000000     0.465430000000     0.0549864  
H300     H      0.842870000000     0.187210000000     0.359210000000     0.0375086  
H301     H      0.772160000000     0.134260000000     0.470020000000     0.0600622  
H302     H      0.816480000000     0.190880000000     0.311010000000     0.0514619  
H303     H      0.806570000000     0.118210000000     0.302550000000     0.0520255  
H304     H      0.777090000000     0.112110000000     0.416040000000     0.0348148  
H305     H      0.811840000000     0.123420000000     0.239390000000     0.0243617  
H306     H      0.765820000000     0.145430000000     0.550850000000     0.0829592  
H307     H      0.750130000000     0.119470000000     0.522270000000     0.0675567  
H308     H      0.764260000000     0.116350000000     0.560920000000     0.0808868  
H309     H      0.114990000000     0.295140000000     0.700390000000     0.021961   
H310     H      0.144440000000     0.346530000000     0.400240000000     0.0236382  
H311     H      0.125630000000     0.284550000000     0.587140000000     0.0360747  
H312     H      0.161260000000     0.360140000000     0.514910000000     0.0351422  
H313     H      0.138140000000     0.347690000000     0.462180000000     0.0536077  
H314     H      0.160120000000     0.363360000000     0.578390000000     0.0362794  
H315     H      0.153630000000     0.289280000000     0.478380000000     0.059663   
H316     H      0.109760000000     0.293740000000     0.637270000000     0.0505978  
H317     H      0.180330000000     0.359500000000     0.627890000000     0.0514961  
H318     H      0.125150000000     0.281230000000     0.523570000000     0.0344212  
H319     H      0.184460000000     0.360890000000     0.691040000000     0.0242812  
H320     H      0.179750000000     0.291880000000     0.398340000000     0.0838094  
H321     H      0.164000000000     0.272000000000     0.434170000000     0.0679528  
H322     H      0.147370000000     0.268570000000     0.394670000000     0.0847887  
H323     H      0.179850000000     0.360430000000     0.193310000000     0.0245352  
H324     H      0.137580000000     0.294170000000     0.910630000000     0.0219293  
H325     H      0.214490000000     0.320850000000     0.082050000000     0.0367926  
H326     H      0.149540000000     0.328720000000     0.019420000000     0.0361972  
H327     H      0.140920000000     0.294450000000     0.973690000000     0.0543602  
H328     H      0.151650000000     0.331200000000     0.083500000000     0.0378046  
H329     H      0.217260000000     0.348400000000     0.966860000000     0.060759   
H330     H      0.182260000000     0.360730000000     0.129720000000     0.0523749  
H331     H      0.185930000000     0.294220000000     0.133290000000     0.0518796  
H332     H      0.212470000000     0.318550000000     0.017650000000     0.0351494  
H333     H      0.183200000000     0.294170000000     0.196990000000     0.022919   
H334     H      0.221860000000     0.368320000000     0.887080000000     0.0846533  
H335     H      0.237790000000     0.357050000000     0.913350000000     0.069279   
H336     H      0.222540000000     0.340680000000     0.874670000000     0.0850672  
H337     H      0.096000000000     0.322520000000     0.271210000000     0.0243165  
H338     H      0.901400000000     0.167990000000     0.172380000000     0.0242622  
H339     H      0.012430000000     0.276760000000     0.267210000000     0.0369476  
H340     H      0.985910000000     0.210240000000     0.179080000000     0.0349734  
H341     H      0.942130000000     0.184840000000     0.196040000000     0.054553   
H342     H      0.027140000000     0.228670000000     0.203720000000     0.0374846  
H343     H      0.953410000000     0.257500000000     0.184010000000     0.0602215  
H344     H      0.054230000000     0.303090000000     0.250090000000     0.0509414  
H345     H      0.050140000000     0.232710000000     0.256480000000     0.051026   
H346     H      0.971390000000     0.258540000000     0.242200000000     0.0347771  
H347     H      0.092270000000     0.252830000000     0.276740000000     0.0237268  
H348     H      0.897460000000     0.246820000000     0.171720000000     0.0830808  
H349     H      0.926920000000     0.264990000000     0.151880000000     0.0674777  
H350     H      0.903330000000     0.241120000000     0.126670000000     0.0812374  
H351     H      0.430890000000     0.423310000000     0.434390000000     0.0240876  
H352     H      0.238560000000     0.389880000000     0.333680000000     0.0242788  
H353     H      0.366820000000     0.399600000000     0.359020000000     0.0369155  
H354     H      0.301070000000     0.411520000000     0.410230000000     0.0353951  
H355     H      0.279590000000     0.411350000000     0.356470000000     0.0539421  
H356     H      0.342020000000     0.432850000000     0.435900000000     0.0364183  
H357     H      0.284730000000     0.346160000000     0.347010000000     0.0595572  
H358     H      0.389360000000     0.400680000000     0.411830000000     0.051463   
H359     H      0.383120000000     0.465600000000     0.421850000000     0.0510181  
H360     H      0.325880000000     0.378280000000     0.333350000000     0.0348908  
H361     H      0.424460000000     0.487570000000     0.444850000000     0.0227412  
H362     H      0.234130000000     0.314770000000     0.290200000000     0.0852881  
H363     H      0.256110000000     0.312450000000     0.316770000000     0.0680181  
H364     H      0.226990000000     0.304200000000     0.335680000000     0.0820785  
H365     H      0.517880000000     0.974820000000     0.870030000000     0.0245733  
H366     H      0.544910000000     0.021060000000     0.571780000000     0.0231875  
H367     H      0.482320000000     0.000310000000     0.750260000000     0.0378833  
H368     H      0.549170000000     0.995020000000     0.689150000000     0.0355867  
H369     H      0.549080000000     0.023220000000     0.634820000000     0.054225   
H370     H      0.550610000000     0.999790000000     0.753400000000     0.0373533  
H371     H      0.478090000000     0.959430000000     0.645110000000     0.060787   
H372     H      0.520990000000     0.971880000000     0.806670000000     0.0525661  
H373     H      0.513400000000     0.035740000000     0.793420000000     0.05242    
H374     H      0.480630000000     0.995050000000     0.686470000000     0.0362727  
H375     H      0.510870000000     0.038590000000     0.856660000000     0.0244409  
H376     H      0.472280000000     0.939430000000     0.557880000000     0.0858312  
H377     H      0.456540000000     0.936020000000     0.598040000000     0.0683217  
H378     H      0.455490000000     0.955810000000     0.565280000000     0.0845546  
H379     H      0.521570000000     0.040210000000     0.365130000000     0.0224405  
H380     H      0.473990000000     0.969190000000     0.075750000000     0.0235397  
H381     H      0.526090000000     0.031250000000     0.249690000000     0.0363872  
H382     H      0.446420000000     0.983350000000     0.188260000000     0.0360792  
H383     H      0.470850000000     0.968740000000     0.139080000000     0.0554217  
H384     H      0.447320000000     0.983490000000     0.252400000000     0.0359949  
H385     H      0.499480000000     0.046370000000     0.139360000000     0.0606993  
H386     H      0.518060000000     0.043500000000     0.302380000000     0.0504531  
H387     H      0.457900000000     0.968830000000     0.300610000000     0.051075   
H388     H      0.524580000000     0.032230000000     0.185880000000     0.0364229  
H389     H      0.460930000000     0.966870000000     0.363530000000     0.0241762  
H390     H      0.492220000000     0.055180000000     0.053240000000     0.085479   
H391     H      0.512170000000     0.069730000000     0.089570000000     0.0683849  
H392     H      0.522650000000     0.058240000000     0.054960000000     0.0851303  
H393     H      0.574310000000     0.077570000000     0.991830000000     0.0223578  
H394     H      0.760570000000     0.103720000000     0.106890000000     0.0244182  
H395     H      0.635730000000     0.100540000000     0.072230000000     0.0362308  
H396     H      0.698240000000     0.080460000000     0.030360000000     0.0357047  
H397     H      0.719700000000     0.082900000000     0.083750000000     0.0539987  
H398     H      0.657390000000     0.059830000000     0.004240000000     0.0374192  
H399     H      0.717670000000     0.149990000000     0.086300000000     0.0592461  
H400     H      0.615890000000     0.098820000000     0.014430000000     0.050933   
H401     H      0.614450000000     0.029780000000     0.022180000000     0.0522643  
H402     H      0.676330000000     0.120810000000     0.098960000000     0.0341979  
H403     H      0.572920000000     0.009030000000     0.999450000000     0.0248894  
H404     H      0.776890000000     0.190370000000     0.097350000000     0.0835137  
H405     H      0.747590000000     0.184800000000     0.111870000000     0.067361   
H406     H      0.767090000000     0.181930000000     0.142930000000     0.0850078  
H407     H      0.201990000000     0.834840000000     0.408650000000     0.0230928  
H408     H      0.165230000000     0.871570000000     0.701290000000     0.0212523  
H409     H      0.218960000000     0.865920000000     0.519710000000     0.0357267  
H410     H      0.143390000000     0.838870000000     0.589940000000     0.0365364  
H411     H      0.166580000000     0.874950000000     0.637980000000     0.0543669  
H412     H      0.140480000000     0.836230000000     0.526220000000     0.0368145  
H413     H      0.201460000000     0.831390000000     0.632150000000     0.0607644  
H414     H      0.206760000000     0.840200000000     0.471560000000     0.0505245  
H415     H      0.147840000000     0.856660000000     0.473610000000     0.0512631  
H416     H      0.221320000000     0.867010000000     0.583770000000     0.0350513  
H417     H      0.142620000000     0.849600000000     0.411090000000     0.0244805  
H418     H      0.191050000000     0.806530000000     0.708770000000     0.0844326  
H419     H      0.218040000000     0.824040000000     0.682640000000     0.0690469  
H420     H      0.216060000000     0.835770000000     0.724270000000     0.0845352  
H421     H      0.159530000000     0.793750000000     0.907250000000     0.0240921  
H422     H      0.123040000000     0.824890000000     0.202090000000     0.0231633  
H423     H      0.130590000000     0.775480000000     0.018930000000     0.0359756  
H424     H      0.156350000000     0.849980000000     0.091080000000     0.0365022  
H425     H      0.119840000000     0.824320000000     0.138890000000     0.0548094  
H426     H      0.157990000000     0.853500000000     0.027360000000     0.036427   
H427     H      0.167280000000     0.793880000000     0.131210000000     0.0609252  
H428     H      0.155390000000     0.788660000000     0.970120000000     0.0508784  
H429     H      0.136890000000     0.846080000000     0.975310000000     0.0505389  
H430     H      0.130590000000     0.772600000000     0.082890000000     0.0354501  
H431     H      0.142780000000     0.851710000000     0.912540000000     0.0222741  
H432     H      0.163670000000     0.778120000000     0.222720000000     0.0851206  
H433     H      0.176340000000     0.778050000000     0.180970000000     0.0692318  
H434     H      0.192120000000     0.804730000000     0.208220000000     0.0837492  
H435     H      0.428450000000     0.004880000000     0.936930000000     0.0239829  
H436     H      0.238790000000     0.841330000000     0.838190000000     0.0229675  
H437     H      0.344420000000     0.956060000000     0.932190000000     0.03681    
H438     H      0.322170000000     0.889100000000     0.846040000000     0.0348563  
H439     H      0.279620000000     0.861580000000     0.861800000000     0.0535614  
H440     H      0.363200000000     0.909850000000     0.871430000000     0.0369433  
H441     H      0.283350000000     0.931180000000     0.850540000000     0.0599129  
H442     H      0.386740000000     0.983900000000     0.915000000000     0.0514091  
H443     H      0.384710000000     0.914750000000     0.926760000000     0.0516942  
H444     H      0.303350000000     0.935280000000     0.906830000000     0.0353891  
H445     H      0.426560000000     0.936290000000     0.948050000000     0.0246763  
H446     H      0.225390000000     0.914530000000     0.839270000000     0.0844936  
H447     H      0.254280000000     0.935330000000     0.819670000000     0.0686924  
H448     H      0.232300000000     0.910480000000     0.793980000000     0.0850612  
H449     H      0.819020000000     0.623840000000     0.744550000000     0.0247984  
H450     H      0.850710000000     0.685640000000     0.028280000000     0.0232684  
H451     H      0.786800000000     0.618980000000     0.854200000000     0.0364979  
H452     H      0.833850000000     0.698530000000     0.916040000000     0.0350228  
H453     H      0.849210000000     0.686850000000     0.965400000000     0.0540888  
H454     H      0.835260000000     0.697460000000     0.852240000000     0.0368766  
H455     H      0.772500000000     0.633280000000     0.967430000000     0.0595788  
H456     H      0.814200000000     0.623680000000     0.807600000000     0.0518751  
H457     H      0.811940000000     0.690910000000     0.799710000000     0.0515159  
H458     H      0.786490000000     0.619890000000     0.918120000000     0.0348361  
H459     H      0.817530000000     0.690930000000     0.736810000000     0.024541   
H460     H      0.764550000000     0.638750000000     0.058830000000     0.0846821  
H461     H      0.750600000000     0.622860000000     0.019300000000     0.068344   
H462     H      0.765800000000     0.611350000000     0.046630000000     0.0825001  
H463     H      0.845730000000     0.696780000000     0.525700000000     0.0248337  
H464     H      0.869900000000     0.675460000000     0.235590000000     0.0235785  
H465     H      0.814650000000     0.661930000000     0.419310000000     0.0379186  
H466     H      0.875650000000     0.650510000000     0.351810000000     0.0358778  
H467     H      0.876170000000     0.678350000000     0.298230000000     0.0547522  
H468     H      0.879960000000     0.655840000000     0.415870000000     0.0375228  
H469     H      0.802560000000     0.619860000000     0.313670000000     0.0602566  
H470     H      0.846820000000     0.694940000000     0.462100000000     0.0526823  
H471     H      0.852930000000     0.629910000000     0.469960000000     0.0523946  
H472     H      0.810180000000     0.656270000000     0.355670000000     0.036078   
H473     H      0.851380000000     0.631930000000     0.533610000000     0.0245574  
H474     H      0.790820000000     0.597670000000     0.228420000000     0.083321   
H475     H      0.776870000000     0.598700000000     0.268490000000     0.0673939  
H476     H      0.778980000000     0.618760000000     0.233830000000     0.0837951  
H477     H      0.762310000000     0.660150000000     0.604950000000     0.0247751  
H478     H      0.572120000000     0.500230000000     0.502390000000     0.0228795  
H479     H      0.678360000000     0.611800000000     0.600860000000     0.0368733  
H480     H      0.655090000000     0.547940000000     0.509260000000     0.0346597  
H481     H      0.612990000000     0.519930000000     0.525400000000     0.0532128  
H482     H      0.696320000000     0.567650000000     0.533910000000     0.036798   
H483     H      0.615870000000     0.589430000000     0.521810000000     0.0597159  
H484     H      0.720580000000     0.640080000000     0.583300000000     0.0516645  
H485     H      0.718230000000     0.570490000000     0.588470000000     0.0515798  
H486     H      0.637050000000     0.592010000000     0.576320000000     0.0351809  
H487     H      0.760180000000     0.591180000000     0.609640000000     0.024585   
H488     H      0.556740000000     0.571460000000     0.512990000000     0.0841834  
H489     H      0.585730000000     0.594350000000     0.496150000000     0.0683669  
H490     H      0.564940000000     0.571220000000     0.467000000000     0.0850251  
H491     H      0.906850000000     0.730870000000     0.664120000000     0.0248152  
H492     H      0.098220000000     0.765300000000     0.769670000000     0.0239869  
H493     H      0.966530000000     0.749830000000     0.746240000000     0.0367904  
H494     H      0.032660000000     0.737710000000     0.697040000000     0.0361428  
H495     H      0.057050000000     0.741410000000     0.747800000000     0.0533003  
H496     H      0.991650000000     0.715880000000     0.671210000000     0.0369949  
H497     H      0.046480000000     0.803290000000     0.759750000000     0.059189   
H498     H      0.948090000000     0.751600000000     0.687840000000     0.0524254  
H499     H      0.948060000000     0.683120000000     0.687830000000     0.0525802  
H500     H      0.007110000000     0.771030000000     0.772800000000     0.0351259  
H501     H      0.906650000000     0.662760000000     0.664220000000     0.0248691  
H502     H      0.103370000000     0.848030000000     0.771130000000     0.0839645  
H503     H      0.073570000000     0.837840000000     0.788890000000     0.0675577  
H504     H      0.095860000000     0.836820000000     0.816330000000     0.0851851  
N1       N      0.787180000000     0.088170000000     0.663770000000    -0.212462   
N2       N      0.696510000000     0.894080000000     0.776290000000    -0.198816   
N3       N      0.956890000000     0.420740000000     0.494670000000    -0.212171   
N4       N      0.860180000000     0.227660000000     0.611010000000    -0.199159   
N5       N      0.030790000000     0.560030000000     0.438820000000    -0.211267   
N6       N      0.124210000000     0.755950000000     0.332470000000    -0.199313   
N7       N      0.636450000000     0.755410000000     0.831930000000    -0.212178   
N8       N      0.535200000000     0.561150000000     0.943810000000    -0.198892   
N9       N      0.195490000000     0.895110000000     0.277540000000    -0.212347   
N10      N      0.288230000000     0.088040000000     0.160900000000    -0.199145   
N11      N      0.357940000000     0.226920000000     0.104420000000    -0.21208    
N12      N      0.457230000000     0.422140000000     0.996400000000    -0.199023   
N13      N      0.664480000000     0.812910000000     0.405330000000    -0.21292    
N14      N      0.665570000000     0.809920000000     0.703780000000    -0.199208   
N15      N      0.665720000000     0.840450000000     0.203210000000    -0.212877   
N16      N      0.667280000000     0.839830000000     0.904470000000    -0.199173   
N17      N      0.790980000000     0.689790000000     0.163790000000    -0.212714   
N18      N      0.696390000000     0.788640000000     0.278600000000    -0.19965    
N19      N      0.633160000000     0.865090000000     0.329720000000    -0.21286    
N20      N      0.534680000000     0.960850000000     0.442090000000    -0.199346   
N21      N      0.988710000000     0.501490000000     0.865690000000    -0.212443   
N22      N      0.997870000000     0.505490000000     0.567230000000    -0.199016   
N23      N      0.989580000000     0.473620000000     0.366100000000    -0.212646   
N24      N      0.996180000000     0.477360000000     0.066880000000    -0.198467   
N25      N      0.854460000000     0.613920000000     0.108590000000    -0.212341   
N26      N      0.956250000000     0.522030000000     0.994500000000    -0.199395   
N27      N      0.335030000000     0.153010000000     0.735030000000    -0.212418   
N28      N      0.316790000000     0.141430000000     0.031590000000    -0.199618   
N29      N      0.334360000000     0.175710000000     0.531590000000    -0.213074   
N30      N      0.328980000000     0.173050000000     0.232660000000    -0.199768   
N31      N      0.466460000000     0.031880000000     0.496980000000    -0.212468   
N32      N      0.368270000000     0.127850000000     0.609460000000    -0.199827   
N33      N      0.126510000000     0.358940000000     0.827460000000    -0.212381   
N34      N      0.029170000000     0.456360000000     0.938070000000    -0.198411   
N35      N      0.198400000000     0.291190000000     0.772990000000    -0.212394   
N36      N      0.300670000000     0.200430000000     0.657210000000    -0.199507   
N37      N      0.483230000000     0.480320000000     0.570360000000    -0.213183   
N38      N      0.485390000000     0.477250000000     0.869410000000    -0.198807   
N39      N      0.515970000000     0.509400000000     0.370030000000    -0.213419   
N40      N      0.507460000000     0.506540000000     0.071190000000    -0.198952   
N41      N      0.848630000000     0.181360000000     0.037360000000    -0.212932   
N42      N      0.836630000000     0.173330000000     0.738470000000    -0.199273   
N43      N      0.812140000000     0.144360000000     0.536770000000    -0.212999   
N44      N      0.817400000000     0.159980000000     0.238920000000    -0.199432   
N45      N      0.152660000000     0.317190000000     0.402360000000    -0.212633   
N46      N      0.150290000000     0.327860000000     0.700360000000    -0.199873   
N47      N      0.175250000000     0.321570000000     0.901440000000    -0.213775   
N48      N      0.180880000000     0.327040000000     0.199830000000    -0.199644   
N49      N      0.902990000000     0.202680000000     0.164880000000    -0.212588   
N50      N      0.097350000000     0.289180000000     0.275250000000    -0.199156   
N51      N      0.237120000000     0.355200000000     0.326860000000    -0.212359   
N52      N      0.430860000000     0.457170000000     0.441040000000    -0.199461   
N53      N      0.508730000000     0.989230000000     0.570930000000    -0.212444   
N54      N      0.513770000000     0.006680000000     0.868010000000    -0.199228   
N55      N      0.488710000000     0.008070000000     0.070100000000    -0.212723   
N56      N      0.491710000000     0.003250000000     0.368940000000    -0.199632   
N57      N      0.763560000000     0.139290000000     0.110540000000    -0.212072   
N58      N      0.570410000000     0.041700000000     0.994340000000    -0.199533   
N59      N      0.181750000000     0.848810000000     0.703910000000    -0.213729   
N60      N      0.171710000000     0.841410000000     0.405270000000    -0.19922    
N61      N      0.147720000000     0.810530000000     0.203970000000    -0.213333   
N62      N      0.151830000000     0.823350000000     0.905260000000    -0.199457   
N63      N      0.236490000000     0.874080000000     0.831150000000    -0.212695   
N64      N      0.430740000000     0.972210000000     0.943720000000    -0.199109   
N65      N      0.812810000000     0.658130000000     0.035200000000    -0.213184   
N66      N      0.818980000000     0.657550000000     0.736020000000    -0.199142   
N67      N      0.832280000000     0.646250000000     0.237320000000    -0.212584   
N68      N      0.847930000000     0.664200000000     0.534350000000    -0.199166   
N69      N      0.569290000000     0.532920000000     0.499020000000    -0.212451   
N70      N      0.764460000000     0.627220000000     0.608600000000    -0.198803   
N71      N      0.096770000000     0.798390000000     0.778090000000    -0.211843   
N72      N      0.903530000000     0.695220000000     0.662850000000    -0.198758   
Ni1      Ni     0.833540000000     0.642020000000     0.637160000000     0.998899   
Ni2      Ni     0.834620000000     0.680260000000     0.633530000000     1.00501    
Ni3      Ni     0.168220000000     0.818140000000     0.802490000000     0.995489   
Ni4      Ni     0.165120000000     0.854070000000     0.806790000000     0.996751   
Ni5      Ni     0.500000000000     0.987940000000     0.972200000000     1.00067    
Ni6      Ni     0.501270000000     0.026080000000     0.965380000000     1.00052    
Ni7      Ni     0.166310000000     0.302870000000     0.301820000000     0.99314    
Ni8      Ni     0.167890000000     0.341310000000     0.300170000000     1.00503    
Ni9      Ni     0.832350000000     0.151680000000     0.136640000000     1.00227    
Ni10     Ni     0.834000000000     0.190070000000     0.140050000000     0.992579   
Ni11     Ni     0.501710000000     0.477210000000     0.467700000000     0.998919   
Ni12     Ni     0.498010000000     0.512790000000     0.472850000000     0.993798   
Ni13     Ni     0.180970000000     0.344170000000     0.798780000000     0.997232   
Ni14     Ni     0.144170000000     0.305930000000     0.803070000000     0.998933   
Ni15     Ni     0.353800000000     0.182600000000     0.635750000000     0.997872   
Ni16     Ni     0.315400000000     0.145970000000     0.630680000000     1.00178    
Ni17     Ni     0.011440000000     0.508190000000     0.968500000000     0.993105   
Ni18     Ni     0.974070000000     0.470330000000     0.964070000000     1.00652    
Ni19     Ni     0.684480000000     0.844510000000     0.307570000000     0.996939   
Ni20     Ni     0.645300000000     0.809080000000     0.301130000000     0.997808   
Ni21     Ni     0.841900000000     0.670080000000     0.134860000000     1.00198    
Ni22     Ni     0.803410000000     0.633560000000     0.137280000000     0.991377   
Ni23     Ni     0.519410000000     0.014860000000     0.469210000000     0.999418   
Ni24     Ni     0.481580000000     0.977400000000     0.469970000000     0.998317   
Ni25     Ni     0.303890000000     0.157110000000     0.131240000000     0.998045   
Ni26     Ni     0.341710000000     0.157300000000     0.133050000000     1.00366    
Ni27     Ni     0.478370000000     0.493560000000     0.971670000000     0.999232   
Ni28     Ni     0.514120000000     0.489830000000     0.969040000000     1.00221    
Ni29     Ni     0.141180000000     0.826180000000     0.306760000000     1.00127    
Ni30     Ni     0.178000000000     0.824560000000     0.302980000000     0.995916   
Ni31     Ni     0.975420000000     0.490810000000     0.464460000000     0.999706   
Ni32     Ni     0.012510000000     0.489860000000     0.468680000000     0.993128   
Ni33     Ni     0.805560000000     0.159140000000     0.640150000000     0.993995   
Ni34     Ni     0.842160000000     0.157160000000     0.635730000000     1.00438    
Ni35     Ni     0.646700000000     0.822620000000     0.801420000000     1.00245    
Ni36     Ni     0.686360000000     0.827160000000     0.806850000000     0.99648    
O1       O      0.841700000000     0.645410000000     0.588220000000    -0.450426   
O2       O      0.825490000000     0.641160000000     0.685900000000    -0.450361   
O3       O      0.799420000000     0.626630000000     0.625000000000    -0.449172   
O4       O      0.867700000000     0.659910000000     0.649010000000    -0.449507   
O5       O      0.868670000000     0.695640000000     0.645690000000    -0.451073   
O6       O      0.800510000000     0.662410000000     0.621750000000    -0.451541   
O7       O      0.826470000000     0.676880000000     0.682430000000    -0.451768   
O8       O      0.842530000000     0.681060000000     0.584770000000    -0.451338   
O9       O      0.160170000000     0.812680000000     0.851380000000    -0.450945   
O10      O      0.176350000000     0.825990000000     0.753960000000    -0.456245   
O11      O      0.202180000000     0.837890000000     0.814750000000    -0.452291   
O12      O      0.133940000000     0.800790000000     0.790500000000    -0.448718   
O13      O      0.131290000000     0.834430000000     0.794730000000    -0.459305   
O14      O      0.199260000000     0.871440000000     0.818550000000    -0.457329   
O15      O      0.173100000000     0.859410000000     0.757780000000    -0.453497   
O16      O      0.157130000000     0.846270000000     0.855490000000    -0.451622   
O17      O      0.507680000000     0.989560000000     0.923160000000    -0.449502   
O18      O      0.492470000000     0.988920000000     0.020820000000    -0.450136   
O19      O      0.465830000000     0.972220000000     0.960720000000    -0.450963   
O20      O      0.534250000000     0.006110000000     0.983210000000    -0.451134   
O21      O      0.535550000000     0.041790000000     0.976230000000    -0.453083   
O22      O      0.466870000000     0.007860000000     0.955070000000    -0.450888   
O23      O      0.494390000000     0.024840000000     0.014500000000    -0.458248   
O24      O      0.508180000000     0.024900000000     0.916710000000    -0.452088   
O25      O      0.174130000000     0.306950000000     0.252730000000    -0.451936   
O26      O      0.158700000000     0.301380000000     0.350810000000    -0.457205   
O27      O      0.132150000000     0.287950000000     0.290350000000    -0.450326   
O28      O      0.200510000000     0.320250000000     0.313180000000    -0.458539   
O29      O      0.202020000000     0.356120000000     0.311810000000    -0.451839   
O30      O      0.133700000000     0.323980000000     0.288650000000    -0.451447   
O31      O      0.159950000000     0.337140000000     0.349140000000    -0.453047   
O32      O      0.175570000000     0.342930000000     0.251260000000    -0.452463   
O33      O      0.840820000000     0.158530000000     0.088020000000    -0.452519   
O34      O      0.823870000000     0.147210000000     0.185440000000    -0.451536   
O35      O      0.798390000000     0.137520000000     0.124450000000    -0.451268   
O36      O      0.866490000000     0.168470000000     0.149050000000    -0.450533   
O37      O      0.867910000000     0.204270000000     0.152000000000    -0.459053   
O38      O      0.799970000000     0.173360000000     0.127700000000    -0.457726   
O39      O      0.825620000000     0.183280000000     0.188780000000    -0.451958   
O40      O      0.842350000000     0.194400000000     0.091150000000    -0.458121   
O41      O      0.510500000000     0.485970000000     0.419480000000    -0.455806   
O42      O      0.492860000000     0.470900000000     0.516340000000    -0.451372   
O43      O      0.467740000000     0.459710000000     0.454570000000    -0.450426   
O44      O      0.535350000000     0.496990000000     0.481080000000    -0.454422   
O45      O      0.532030000000     0.530250000000     0.485820000000    -0.455879   
O46      O      0.464330000000     0.493050000000     0.459560000000    -0.452828   
O47      O      0.489260000000     0.504070000000     0.521070000000    -0.456143   
O48      O      0.506750000000     0.519050000000     0.424180000000    -0.452865   
O49      O      0.173310000000     0.344810000000     0.750210000000    -0.451323   
O50      O      0.186360000000     0.340950000000     0.847540000000    -0.45666    
O51      O      0.197270000000     0.326370000000     0.786570000000    -0.453029   
O52      O      0.162150000000     0.359420000000     0.811310000000    -0.450399   
O53      O      0.127870000000     0.323660000000     0.815180000000    -0.458569   
O54      O      0.162910000000     0.290710000000     0.790520000000    -0.458182   
O55      O      0.151870000000     0.305300000000     0.851610000000    -0.45473    
O56      O      0.138780000000     0.309040000000     0.754290000000    -0.454515   
O57      O      0.353100000000     0.175450000000     0.684680000000    -0.45949    
O58      O      0.352010000000     0.187350000000     0.586520000000    -0.45931    
O59      O      0.336030000000     0.199380000000     0.645480000000    -0.451721   
O60      O      0.369050000000     0.163470000000     0.625610000000    -0.453935   
O61      O      0.333080000000     0.129280000000     0.620350000000    -0.451864   
O62      O      0.300160000000     0.164940000000     0.641440000000    -0.45217    
O63      O      0.315860000000     0.153530000000     0.581700000000    -0.450525   
O64      O      0.317600000000     0.140970000000     0.680000000000    -0.450727   
O65      O      0.012510000000     0.500610000000     0.017020000000    -0.451753   
O66      O      0.007820000000     0.513350000000     0.919750000000    -0.457393   
O67      O      0.992380000000     0.523090000000     0.980930000000    -0.451      
O68      O      0.028120000000     0.490810000000     0.955710000000    -0.449176   
O69      O      0.993130000000     0.455440000000     0.951680000000    -0.450356   
O70      O      0.957420000000     0.487690000000     0.976790000000    -0.451684   
O71      O      0.973060000000     0.477940000000     0.915570000000    -0.452906   
O72      O      0.977540000000     0.465210000000     0.012860000000    -0.45182    
O73      O      0.683200000000     0.850620000000     0.258530000000    -0.458472   
O74      O      0.683330000000     0.835960000000     0.356120000000    -0.452275   
O75      O      0.698540000000     0.824600000000     0.296050000000    -0.454392   
O76      O      0.667820000000     0.862180000000     0.318620000000    -0.457033   
O77      O      0.631300000000     0.829100000000     0.312430000000    -0.454701   
O78      O      0.661900000000     0.791300000000     0.290240000000    -0.450449   
O79      O      0.646570000000     0.803050000000     0.350240000000    -0.456206   
O80      O      0.646560000000     0.817580000000     0.252480000000    -0.450959   
O81      O      0.845800000000     0.665440000000     0.183690000000    -0.453026   
O82      O      0.835500000000     0.672310000000     0.086150000000    -0.453309   
O83      O      0.825220000000     0.687430000000     0.147400000000    -0.45813    
O84      O      0.856030000000     0.650340000000     0.122570000000    -0.453212   
O85      O      0.820130000000     0.616180000000     0.124920000000    -0.457422   
O86      O      0.789240000000     0.653330000000     0.149400000000    -0.455121   
O87      O      0.799520000000     0.638120000000     0.088460000000    -0.457557   
O88      O      0.809730000000     0.631460000000     0.186020000000    -0.458475   
O89      O      0.522840000000     0.009460000000     0.518000000000    -0.451887   
O90      O      0.513380000000     0.017770000000     0.420490000000    -0.451594   
O91      O      0.501590000000     0.030920000000     0.482020000000    -0.459014   
O92      O      0.534840000000     0.996390000000     0.456450000000    -0.45239    
O93      O      0.499560000000     0.961180000000     0.458090000000    -0.451007   
O94      O      0.466130000000     0.996160000000     0.481780000000    -0.451272   
O95      O      0.478410000000     0.982220000000     0.421050000000    -0.452303   
O96      O      0.487170000000     0.974980000000     0.518820000000    -0.459037   
O97      O      0.301940000000     0.148950000000     0.082430000000    -0.451133   
O98      O      0.308260000000     0.165210000000     0.180190000000    -0.451435   
O99      O      0.322350000000     0.191290000000     0.119210000000    -0.449588   
O100     O      0.288030000000     0.122990000000     0.143470000000    -0.449164   
O101     O      0.323550000000     0.123510000000     0.146310000000    -0.452647   
O102     O      0.357400000000     0.191070000000     0.119730000000    -0.458936   
O103     O      0.344180000000     0.166490000000     0.181480000000    -0.453608   
O104     O      0.336820000000     0.148150000000     0.084490000000    -0.452554   
O105     O      0.485410000000     0.501400000000     0.020530000000    -0.449764   
O106     O      0.473820000000     0.485710000000     0.922570000000    -0.449712   
O107     O      0.460320000000     0.459320000000     0.983310000000    -0.449506   
O108     O      0.498690000000     0.527440000000     0.959840000000    -0.4508     
O109     O      0.532130000000     0.524010000000     0.957130000000    -0.449848   
O110     O      0.493820000000     0.456000000000     0.981080000000    -0.451786   
O111     O      0.507040000000     0.481870000000     0.920280000000    -0.450768   
O112     O      0.518780000000     0.497850000000     0.018030000000    -0.450998   
O113     O      0.148700000000     0.834670000000     0.355260000000    -0.451161   
O114     O      0.136160000000     0.817880000000     0.257920000000    -0.452466   
O115     O      0.124820000000     0.792000000000     0.319100000000    -0.44888    
O116     O      0.159980000000     0.860140000000     0.294210000000    -0.451197   
O117     O      0.194300000000     0.858620000000     0.290820000000    -0.457834   
O118     O      0.159380000000     0.790690000000     0.315370000000    -0.454476   
O119     O      0.170460000000     0.816220000000     0.254330000000    -0.455647   
O120     O      0.183020000000     0.832860000000     0.351940000000    -0.451381   
O121     O      0.974240000000     0.482170000000     0.415850000000    -0.452616   
O122     O      0.979040000000     0.499370000000     0.513330000000    -0.450991   
O123     O      0.994660000000     0.524710000000     0.452140000000    -0.450554   
O124     O      0.958590000000     0.456830000000     0.477140000000    -0.457543   
O125     O      0.993190000000     0.455910000000     0.481110000000    -0.451223   
O126     O      0.029310000000     0.523890000000     0.455880000000    -0.455703   
O127     O      0.013790000000     0.498440000000     0.517150000000    -0.454588   
O128     O      0.008820000000     0.481160000000     0.420050000000    -0.460655   
O129     O      0.813220000000     0.167050000000     0.688880000000    -0.450164   
O130     O      0.800300000000     0.151060000000     0.591180000000    -0.45672    
O131     O      0.788880000000     0.125010000000     0.651770000000    -0.458375   
O132     O      0.824620000000     0.193160000000     0.628030000000    -0.450707   
O133     O      0.858910000000     0.191350000000     0.624150000000    -0.450706   
O134     O      0.822950000000     0.123060000000     0.647630000000    -0.451417   
O135     O      0.834600000000     0.149460000000     0.587050000000    -0.452983   
O136     O      0.847450000000     0.165170000000     0.684620000000    -0.452135   
O137     O      0.648710000000     0.830880000000     0.850200000000    -0.451205   
O138     O      0.647120000000     0.814440000000     0.753080000000    -0.451302   
O139     O      0.633530000000     0.788920000000     0.814150000000    -0.451881   
O140     O      0.662580000000     0.856730000000     0.788990000000    -0.449247   
O141     O      0.699630000000     0.860870000000     0.794320000000    -0.451055   
O142     O      0.670460000000     0.793050000000     0.819050000000    -0.455845   
O143     O      0.684370000000     0.819000000000     0.757960000000    -0.451224   
O144     O      0.685850000000     0.835220000000     0.855310000000    -0.450288   


