data_structure

_audit_creation_method RASPA-1.0
_audit_creation_date 2023-5-19
_audit_author_name 'Poobodin Mano'

_cell_length_a    38.5645
_cell_length_b    38.5845
_cell_length_c    38.5481
_cell_angle_alpha 90
_cell_angle_beta  90
_cell_angle_gamma 90
_cell_volume      57359.3

_symmetry_cell_setting          triclinic
_symmetry_space_group_name_Hall 'P 1'
_symmetry_space_group_name_H-M  'P 1'
_symmetry_Int_Tables_number     1

_symmetry_equiv_pos_as_xyz 'x,y,z'

loop_
_atom_site_label
_atom_site_type_symbol
_atom_site_fract_x
_atom_site_fract_y
_atom_site_fract_z
_atom_site_charge
C1       C      0.990710000000     0.063200000000     0.493760000000     0.435709   
C2       C      0.993520000000     0.930650000000     0.496380000000     0.438027   
C3       C      0.925710000000     0.994600000000     0.496370000000     0.438145   
C4       C      0.058390000000     0.998560000000     0.493980000000     0.435178   
C5       C      0.998270000000     0.430580000000     0.494960000000     0.439402   
C6       C      0.994310000000     0.563090000000     0.501490000000     0.439692   
C7       C      0.994840000000     0.500880000000     0.430870000000     0.437335   
C8       C      0.997630000000     0.492780000000     0.563610000000     0.440785   
C9       C      0.558760000000     0.000770000000     0.496720000000     0.436447   
C10      C      0.426160000000     0.999850000000     0.491610000000     0.44392    
C11      C      0.493270000000     0.000890000000     0.428510000000     0.442479   
C12      C      0.489410000000     0.000040000000     0.561140000000     0.438727   
C13      C      0.495860000000     0.992390000000     0.061180000000     0.442192   
C14      C      0.494910000000     0.992080000000     0.928600000000     0.437179   
C15      C      0.494790000000     0.058610000000     0.995810000000     0.437244   
C16      C      0.495810000000     0.925950000000     0.996180000000     0.438729   
C17      C      0.999150000000     0.495990000000     0.063330000000     0.437793   
C18      C      0.007000000000     0.496160000000     0.930760000000     0.437293   
C19      C      0.069250000000     0.494470000000     0.002020000000     0.43879    
C20      C      0.936910000000     0.497520000000     0.991890000000     0.43737    
C21      C      0.502850000000     0.426040000000     0.992690000000     0.435074   
C22      C      0.503290000000     0.558610000000     0.992630000000     0.435344   
C23      C      0.436770000000     0.492560000000     0.993900000000     0.435319   
C24      C      0.569380000000     0.492290000000     0.991600000000     0.435229   
C25      C      0.846330000000     0.527660000000     0.982190000000    -0.0589927  
C26      C      0.623260000000     0.493820000000     0.021690000000     0.0763452  
C27      C      0.622650000000     0.491900000000     0.960230000000     0.0758722  
C28      C      0.659440000000     0.494530000000     0.021810000000    -0.0940821  
C29      C      0.735450000000     0.476190000000     0.015160000000    -0.032689   
C30      C      0.771660000000     0.477140000000     0.015090000000    -0.0362973  
C31      C      0.716330000000     0.494630000000     0.990170000000    -0.00712421 
C32      C      0.658870000000     0.492430000000     0.959420000000    -0.0939014  
C33      C      0.789680000000     0.496460000000     0.989970000000    -0.000273439
C34      C      0.847250000000     0.467050000000     0.996110000000    -0.0851628  
C35      C      0.770570000000     0.514830000000     0.964910000000    -0.0363617  
C36      C      0.883360000000     0.467950000000     0.995680000000     0.0720004  
C37      C      0.882750000000     0.527820000000     0.980870000000     0.0283581  
C38      C      0.734340000000     0.513970000000     0.965050000000    -0.0323101  
C39      C      0.677760000000     0.493830000000     0.990440000000     0.0518613  
C40      C      0.828240000000     0.497160000000     0.989720000000     0.0398901  
C41      C      0.899120000000     0.559870000000     0.967150000000     0.291439   
C42      C      0.159440000000     0.463380000000     0.011000000000    -0.0594986  
C43      C      0.382450000000     0.491350000000     0.964400000000     0.0760694  
C44      C      0.383930000000     0.494360000000     0.025800000000     0.0763453  
C45      C      0.346220000000     0.491320000000     0.964820000000    -0.0936938  
C46      C      0.270370000000     0.510890000000     0.972450000000    -0.0326639  
C47      C      0.234140000000     0.510880000000     0.973640000000    -0.0362128  
C48      C      0.289790000000     0.492830000000     0.997500000000    -0.00692232 
C49      C      0.347760000000     0.494600000000     0.027140000000    -0.0938017  
C50      C      0.216420000000     0.492910000000     0.999970000000    -0.000351003
C51      C      0.159210000000     0.523320000000     0.994320000000    -0.0852509  
C52      C      0.235850000000     0.474890000000     0.025030000000    -0.0360526  
C53      C      0.123100000000     0.523150000000     0.995910000000     0.072143   
C54      C      0.123080000000     0.464020000000     0.013490000000     0.0284583  
C55      C      0.272040000000     0.474750000000     0.023730000000    -0.0320845  
C56      C      0.328370000000     0.492950000000     0.996440000000     0.0519318  
C57      C      0.177860000000     0.493120000000     0.001440000000     0.0402201  
C58      C      0.106360000000     0.433270000000     0.029620000000     0.292336   
C59      C      0.467610000000     0.834750000000     0.004140000000    -0.0594024  
C60      C      0.501310000000     0.612260000000     0.962030000000     0.0760168  
C61      C      0.505310000000     0.612080000000     0.023380000000     0.0763625  
C62      C      0.500830000000     0.648460000000     0.961700000000    -0.093851   
C63      C      0.518730000000     0.724920000000     0.967560000000    -0.0326841  
C64      C      0.517550000000     0.761140000000     0.967940000000    -0.0364292  
C65      C      0.501540000000     0.705510000000     0.993230000000    -0.0071202  
C66      C      0.505100000000     0.648250000000     0.023980000000    -0.0940193  
C67      C      0.499230000000     0.778820000000     0.994050000000    -0.000203169
C68      C      0.527440000000     0.837020000000     0.987120000000    -0.0850357  
C69      C      0.482180000000     0.759400000000     0.019770000000    -0.0362714  
C70      C      0.526030000000     0.873110000000     0.988680000000     0.0719214  
C71      C      0.467000000000     0.871060000000     0.006600000000     0.0286821  
C72      C      0.483210000000     0.723240000000     0.019290000000    -0.0320725  
C73      C      0.502630000000     0.666960000000     0.992930000000     0.0519142  
C74      C      0.497990000000     0.817360000000     0.994660000000     0.0398134  
C75      C      0.435680000000     0.886580000000     0.022870000000     0.292761   
C76      C      0.465610000000     0.149720000000     0.002590000000    -0.0587804  
C77      C      0.503850000000     0.372490000000     0.023430000000     0.076219   
C78      C      0.500720000000     0.372460000000     0.962020000000     0.0760202  
C79      C      0.503230000000     0.336310000000     0.023940000000    -0.0938344  
C80      C      0.517460000000     0.259780000000     0.967570000000    -0.0326817  
C81      C      0.516180000000     0.223560000000     0.967790000000    -0.0364299  
C82      C      0.499780000000     0.279140000000     0.992940000000    -0.00705525 
C83      C      0.499900000000     0.336260000000     0.961600000000    -0.0937832  
C84      C      0.497250000000     0.205830000000     0.993420000000    -9.74076e-05
C85      C      0.525880000000     0.147790000000     0.987230000000    -0.0848631  
C86      C      0.479630000000     0.225200000000     0.018800000000    -0.0362402  
C87      C      0.524650000000     0.111710000000     0.988790000000     0.0718371  
C88      C      0.465140000000     0.113400000000     0.005060000000     0.0285789  
C89      C      0.480800000000     0.261370000000     0.018510000000    -0.0320493  
C90      C      0.501080000000     0.317680000000     0.992810000000     0.0518781  
C91      C      0.496140000000     0.167280000000     0.993970000000     0.0397284  
C92      C      0.433230000000     0.097900000000     0.020060000000     0.29181    
C93      C      0.481480000000     0.028280000000     0.652420000000    -0.0590881  
C94      C      0.463670000000     0.990520000000     0.875370000000     0.0777449  
C95      C      0.525040000000     0.993870000000     0.874660000000     0.0765667  
C96      C      0.462750000000     0.990840000000     0.839190000000    -0.0935277  
C97      C      0.518260000000     0.976710000000     0.762000000000    -0.0325212  
C98      C      0.517550000000     0.977910000000     0.725760000000    -0.0362389  
C99      C      0.493010000000     0.994210000000     0.781650000000    -0.00678044 
C100     C      0.525050000000     0.994460000000     0.838430000000    -0.0939022  
C101     C      0.491530000000     0.996580000000     0.708330000000     4.17747e-05
C102     C      0.497520000000     0.968210000000     0.650120000000    -0.0847026  
C103     C      0.466250000000     0.013980000000     0.728000000000    -0.0360263  
C104     C      0.495950000000     0.969640000000     0.614020000000     0.0727831  
C105     C      0.478940000000     0.028910000000     0.616090000000     0.0289805  
C106     C      0.467060000000     0.012920000000     0.764180000000    -0.0319701  
C107     C      0.493650000000     0.993040000000     0.820210000000     0.0525076  
C108     C      0.490580000000     0.997790000000     0.669780000000     0.0402255  
C109     C      0.463360000000     0.060610000000     0.600720000000     0.29195    
C110     C      0.487010000000     0.029890000000     0.337330000000    -0.0595913  
C111     C      0.526840000000     0.994460000000     0.114580000000     0.0795108  
C112     C      0.465460000000     0.991020000000     0.114890000000     0.0831311  
C113     C      0.527460000000     0.995250000000     0.150790000000    -0.0937678  
C114     C      0.521970000000     0.977850000000     0.227350000000    -0.0323798  
C115     C      0.521910000000     0.979280000000     0.263580000000    -0.0360723  
C116     C      0.496410000000     0.995310000000     0.208050000000    -0.00659866 
C117     C      0.465150000000     0.991550000000     0.151080000000    -0.0935239  
C118     C      0.496250000000     0.998130000000     0.281340000000    -3.77792e-05
C119     C      0.502680000000     0.969710000000     0.339440000000    -0.0853253  
C120     C      0.470680000000     0.015500000000     0.262020000000    -0.0355684  
C121     C      0.500990000000     0.971010000000     0.375520000000     0.0743639  
C122     C      0.484390000000     0.030410000000     0.373660000000     0.030676   
C123     C      0.470830000000     0.014210000000     0.225850000000    -0.0316372  
C124     C      0.496370000000     0.993900000000     0.169520000000     0.0540994  
C125     C      0.495800000000     0.999370000000     0.319870000000     0.0410841  
C126     C      0.468860000000     0.062050000000     0.389200000000     0.292548   
C127     C      0.970930000000     0.487430000000     0.655750000000    -0.0584852  
C128     C      0.006090000000     0.526930000000     0.877160000000     0.0794868  
C129     C      0.010750000000     0.465660000000     0.877110000000     0.0779599  
C130     C      0.005880000000     0.527410000000     0.840920000000    -0.0930386  
C131     C      0.982140000000     0.515520000000     0.766020000000    -0.0317869  
C132     C      0.980600000000     0.514730000000     0.729790000000    -0.0362844  
C133     C      0.007420000000     0.496290000000     0.783880000000    -0.00685058 
C134     C      0.011130000000     0.465260000000     0.840860000000    -0.0933724  
C135     C      0.004600000000     0.495080000000     0.710680000000     0.00016334 
C136     C      0.032180000000     0.497640000000     0.651950000000    -0.0842464  
C137     C      0.030200000000     0.476240000000     0.728520000000    -0.0362981  
C138     C      0.029710000000     0.496300000000     0.615880000000     0.0766277  
C139     C      0.969190000000     0.484780000000     0.619420000000     0.0334299  
C140     C      0.031430000000     0.476650000000     0.764780000000    -0.0324044  
C141     C      0.008340000000     0.496340000000     0.822360000000     0.0530881  
C142     C      0.002530000000     0.493750000000     0.672270000000     0.0416219  
C143     C      0.935770000000     0.472290000000     0.604980000000     0.293876   
C144     C      0.964390000000     0.504820000000     0.339820000000    -0.0590641  
C145     C      0.994520000000     0.465510000000     0.116980000000     0.0784617  
C146     C      0.000370000000     0.526670000000     0.116950000000     0.0782578  
C147     C      0.993710000000     0.465150000000     0.153250000000    -0.0939791  
C148     C      0.972010000000     0.477210000000     0.228960000000    -0.032064   
C149     C      0.971580000000     0.478070000000     0.265240000000    -0.0366762  
C150     C      0.996740000000     0.496410000000     0.210290000000    -0.00717884 
C151     C      0.000090000000     0.527200000000     0.153170000000    -0.0937205  
C152     C      0.996160000000     0.497760000000     0.283590000000    -0.000138555
C153     C      0.025970000000     0.496040000000     0.341290000000    -0.0847776  
C154     C      0.021150000000     0.516600000000     0.264910000000    -0.0364246  
C155     C      0.024900000000     0.497700000000     0.377410000000     0.0722346  
C156     C      0.964030000000     0.507710000000     0.376190000000     0.0291332  
C157     C      0.021310000000     0.516080000000     0.228660000000    -0.0323331  
C158     C      0.996780000000     0.496220000000     0.171770000000     0.0530266  
C159     C      0.995460000000     0.499110000000     0.322090000000     0.039907   
C160     C      0.930970000000     0.519700000000     0.391900000000     0.291085   
C161     C      0.335520000000     0.970270000000     0.481780000000    -0.0589871  
C162     C      0.112470000000     0.998950000000     0.523870000000     0.0763259  
C163     C      0.111480000000     0.001000000000     0.462440000000     0.076291   
C164     C      0.148680000000     0.999590000000     0.523800000000    -0.0937305  
C165     C      0.224400000000     0.019590000000     0.516980000000    -0.0320881  
C166     C      0.260650000000     0.019360000000     0.516640000000    -0.0360897  
C167     C      0.205430000000     0.001320000000     0.491730000000    -0.00672806 
C168     C      0.147670000000     0.001920000000     0.461430000000    -0.0937514  
C169     C      0.278860000000     0.000950000000     0.490950000000     0.000598934
C170     C      0.336550000000     0.030270000000     0.498180000000    -0.0834533  
C171     C      0.259880000000     0.982960000000     0.465520000000    -0.0360873  
C172     C      0.372700000000     0.029400000000     0.497370000000     0.0768512  
C173     C      0.371920000000     0.970200000000     0.480060000000     0.031297   
C174     C      0.223660000000     0.983030000000     0.465990000000    -0.0318299  
C175     C      0.166810000000     0.001070000000     0.492330000000     0.0521968  
C176     C      0.317470000000     0.000430000000     0.490650000000     0.0412226  
C177     C      0.388270000000     0.939010000000     0.464410000000     0.292477   
C178     C      0.834840000000     0.990770000000     0.526940000000    -0.0595535  
C179     C      0.612290000000     0.031550000000     0.499910000000     0.0772886  
C180     C      0.612440000000     0.970350000000     0.494300000000     0.0766494  
C181     C      0.648540000000     0.032080000000     0.499950000000    -0.0936331  
C182     C      0.723550000000     0.981850000000     0.470810000000    -0.0327036  
C183     C      0.759780000000     0.981320000000     0.470520000000    -0.0366095  
C184     C      0.705530000000     0.001070000000     0.496000000000    -0.0072322  
C185     C      0.648630000000     0.970000000000     0.493760000000    -0.0943803  
C186     C      0.778720000000     0.999630000000     0.495690000000    -0.000439279
C187     C      0.836220000000     0.001960000000     0.465700000000    -0.0852839  
C188     C      0.760720000000     0.018930000000     0.520830000000    -0.0365641  
C189     C      0.872300000000     0.999820000000     0.466570000000     0.0718406  
C190     C      0.871150000000     0.987400000000     0.527050000000     0.0282132  
C191     C      0.724470000000     0.019850000000     0.520830000000    -0.0321404  
C192     C      0.667090000000     0.001090000000     0.496600000000     0.0527048  
C193     C      0.817130000000     0.997940000000     0.496160000000     0.0399356  
C194     C      0.886940000000     0.973570000000     0.559370000000     0.292929   
C195     C      0.963140000000     0.653420000000     0.509820000000    -0.0586522  
C196     C      0.992850000000     0.876490000000     0.466680000000     0.0775684  
C197     C      0.995260000000     0.877670000000     0.528100000000     0.0787323  
C198     C      0.992860000000     0.840290000000     0.466890000000    -0.0936539  
C199     C      0.012420000000     0.764500000000     0.474250000000    -0.0323791  
C200     C      0.012120000000     0.728280000000     0.474930000000    -0.0358619  
C201     C      0.993940000000     0.783700000000     0.499170000000    -0.00667466 
C202     C      0.995450000000     0.841490000000     0.529250000000    -0.0937006  
C203     C      0.993410000000     0.710340000000     0.500580000000     0.000287476
C204     C      0.023580000000     0.653030000000     0.494990000000    -0.0845822  
C205     C      0.975000000000     0.729540000000     0.525530000000    -0.0359533  
C206     C      0.023180000000     0.616920000000     0.496200000000     0.0738721  
C207     C      0.963510000000     0.617050000000     0.511910000000     0.0326586  
C208     C      0.975200000000     0.765740000000     0.524790000000    -0.0317867  
C209     C      0.994140000000     0.822280000000     0.498430000000     0.0528459  
C210     C      0.993290000000     0.671770000000     0.501470000000     0.0410483  
C211     C      0.931860000000     0.600570000000     0.526430000000     0.292016   
C212     C      0.028910000000     0.339650000000     0.497920000000    -0.0585479  
C213     C      0.990610000000     0.117340000000     0.523450000000     0.0769826  
C214     C      0.991120000000     0.116190000000     0.461980000000     0.0763575  
C215     C      0.991410000000     0.153510000000     0.523240000000    -0.0935454  
C216     C      0.975390000000     0.229200000000     0.466300000000    -0.0322681  
C217     C      0.976900000000     0.265410000000     0.465990000000    -0.0361599  
C218     C      0.994110000000     0.210050000000     0.491080000000    -0.00676393 
C219     C      0.992040000000     0.152370000000     0.460830000000    -0.093811   
C220     C      0.997130000000     0.283340000000     0.490470000000     0.000454745
C221     C      0.967910000000     0.341190000000     0.485790000000    -0.0837362  
C222     C      0.015930000000     0.264170000000     0.515140000000    -0.0358659  
C223     C      0.968890000000     0.377250000000     0.487780000000     0.075662   
C224     C      0.029190000000     0.375950000000     0.500840000000     0.0301203  
C225     C      0.014500000000     0.228010000000     0.515380000000    -0.0318236  
C226     C      0.992390000000     0.171530000000     0.491700000000     0.0523604  
C227     C      0.998100000000     0.321900000000     0.490840000000     0.0408214  
C228     C      0.061820000000     0.391530000000     0.514070000000     0.291354   
H1       H      0.609100000000     0.490770000000     0.935620000000     0.0268365  
H2       H      0.896660000000     0.443920000000     0.001680000000     0.0294298  
H3       H      0.720460000000     0.528790000000     0.945650000000     0.0394408  
H4       H      0.785550000000     0.462940000000     0.034950000000     0.0403717  
H5       H      0.834340000000     0.442660000000     0.001310000000     0.0530666  
H6       H      0.722460000000     0.460680000000     0.034630000000     0.0388211  
H7       H      0.832080000000     0.551200000000     0.976450000000     0.058579   
H8       H      0.671930000000     0.491340000000     0.934570000000     0.0547267  
H9       H      0.672900000000     0.496140000000     0.046410000000     0.0548097  
H10      H      0.783590000000     0.529590000000     0.944880000000     0.0420272  
H11      H      0.610230000000     0.494550000000     0.046610000000     0.0269517  
H12      H      0.898600000000     0.612430000000     0.970080000000     0.181608   
H13      H      0.397800000000     0.495720000000     0.050230000000     0.0270207  
H14      H      0.110000000000     0.547100000000     0.989180000000     0.0293334  
H15      H      0.286080000000     0.460190000000     0.043210000000     0.0396802  
H16      H      0.220010000000     0.524760000000     0.953730000000     0.0405122  
H17      H      0.172410000000     0.547170000000     0.987620000000     0.0531651  
H18      H      0.283150000000     0.525430000000     0.952110000000     0.0389741  
H19      H      0.173380000000     0.439840000000     0.017420000000     0.0585329  
H20      H      0.335150000000     0.496490000000     0.052170000000     0.0547593  
H21      H      0.332370000000     0.489530000000     0.940450000000     0.0548699  
H22      H      0.223130000000     0.461180000000     0.045980000000     0.0422053  
H23      H      0.395170000000     0.489930000000     0.939360000000     0.0269567  
H24      H      0.071830000000     0.417870000000     0.066360000000     0.180381   
H25      H      0.507210000000     0.598740000000     0.048060000000     0.0268895  
H26      H      0.549460000000     0.887060000000     0.981830000000     0.0285591  
H27      H      0.469300000000     0.709180000000     0.039230000000     0.0395247  
H28      H      0.530760000000     0.775290000000     0.947590000000     0.0403244  
H29      H      0.551710000000     0.824650000000     0.980320000000     0.0527704  
H30      H      0.533430000000     0.712150000000     0.947320000000     0.0387639  
H31      H      0.444590000000     0.820010000000     0.010710000000     0.0582435  
H32      H      0.507180000000     0.661400000000     0.048710000000     0.0547081  
H33      H      0.498440000000     0.661790000000     0.937090000000     0.0547354  
H34      H      0.468270000000     0.772110000000     0.040590000000     0.0422248  
H35      H      0.499640000000     0.599030000000     0.937270000000     0.0268643  
H36      H      0.419110000000     0.919640000000     0.060430000000     0.181024   
H37      H      0.499560000000     0.385730000000     0.937260000000     0.027039   
H38      H      0.548380000000     0.097950000000     0.982610000000     0.0288419  
H39      H      0.466530000000     0.275420000000     0.038200000000     0.0397333  
H40      H      0.529830000000     0.209460000000     0.947700000000     0.0404942  
H41      H      0.550260000000     0.160310000000     0.981080000000     0.0528018  
H42      H      0.532650000000     0.272580000000     0.947720000000     0.038883   
H43      H      0.442320000000     0.164340000000     0.008470000000     0.0587013  
H44      H      0.497770000000     0.323010000000     0.936930000000     0.054925   
H45      H      0.504780000000     0.323080000000     0.048670000000     0.0548189  
H46      H      0.465220000000     0.212430000000     0.039240000000     0.0423311  
H47      H      0.505510000000     0.385780000000     0.048150000000     0.026963   
H48      H      0.380610000000     0.098470000000     0.017810000000     0.182638   
H49      H      0.549920000000     0.995240000000     0.887690000000     0.0267108  
H50      H      0.502420000000     0.946100000000     0.600090000000     0.0302106  
H51      H      0.447450000000     0.027080000000     0.778450000000     0.0402843  
H52      H      0.537590000000     0.964450000000     0.711410000000     0.0406515  
H53      H      0.503970000000     0.943850000000     0.662500000000     0.0536564  
H54      H      0.538400000000     0.961730000000     0.774580000000     0.0390161  
H55      H      0.475340000000     0.051400000000     0.667180000000     0.0589052  
H56      H      0.549550000000     0.996630000000     0.824870000000     0.0548332  
H57      H      0.437890000000     0.989060000000     0.826240000000     0.0562037  
H58      H      0.445520000000     0.028170000000     0.715460000000     0.0424908  
H59      H      0.439100000000     0.988830000000     0.888940000000     0.0301034  
H60      H      0.464110000000     0.113230000000     0.602030000000     0.182393   
H61      H      0.440680000000     0.989210000000     0.101720000000     0.0321817  
H62      H      0.507210000000     0.947350000000     0.389380000000     0.0289431  
H63      H      0.451010000000     0.028320000000     0.211830000000     0.0414325  
H64      H      0.542130000000     0.965820000000     0.277670000000     0.0404271  
H65      H      0.508960000000     0.945340000000     0.326980000000     0.0534733  
H66      H      0.541830000000     0.962730000000     0.214500000000     0.0392981  
H67      H      0.481010000000     0.053090000000     0.322620000000     0.0587158  
H68      H      0.440520000000     0.989820000000     0.164460000000     0.0571905  
H69      H      0.552180000000     0.997520000000     0.163920000000     0.05553    
H70      H      0.450200000000     0.029810000000     0.274840000000     0.0433685  
H71      H      0.551510000000     0.995790000000     0.101150000000     0.0276655  
H72      H      0.431060000000     0.079510000000     0.421530000000     0.181887   
H73      H      0.012560000000     0.440960000000     0.890400000000     0.0292159  
H74      H      0.053460000000     0.500610000000     0.601450000000     0.033807   
H75      H      0.051310000000     0.461750000000     0.777890000000     0.0403343  
H76      H      0.960720000000     0.529630000000     0.716680000000     0.0454679  
H77      H      0.057180000000     0.502470000000     0.663840000000     0.0550942  
H78      H      0.963140000000     0.530680000000     0.780100000000     0.0421005  
H79      H      0.947950000000     0.482730000000     0.671300000000     0.0601453  
H80      H      0.012850000000     0.440660000000     0.827420000000     0.0566849  
H81      H      0.004000000000     0.552020000000     0.827510000000     0.0571201  
H82      H      0.048860000000     0.460670000000     0.714450000000     0.0427024  
H83      H      0.004040000000     0.551590000000     0.890480000000     0.0329345  
H84      H      0.883550000000     0.478900000000     0.606870000000     0.184288   
H85      H      0.002980000000     0.551300000000     0.103660000000     0.0288943  
H86      H      0.049280000000     0.494020000000     0.390930000000     0.0308849  
H87      H      0.040850000000     0.530910000000     0.214960000000     0.0402303  
H88      H      0.952150000000     0.463150000000     0.278980000000     0.0437275  
H89      H      0.050590000000     0.491660000000     0.328490000000     0.0540515  
H90      H      0.952630000000     0.461990000000     0.215480000000     0.0400501  
H91      H      0.940720000000     0.508930000000     0.325170000000     0.0593077  
H92      H      0.002130000000     0.551810000000     0.166540000000     0.0562121  
H93      H      0.991330000000     0.440620000000     0.166700000000     0.0557409  
H94      H      0.040240000000     0.532230000000     0.278340000000     0.0413808  
H95      H      0.992430000000     0.440840000000     0.103670000000     0.0273944  
H96      H      0.878770000000     0.512660000000     0.391610000000     0.183913   
H97      H      0.097780000000     0.001720000000     0.437880000000     0.0270126  
H98      H      0.386150000000     0.053110000000     0.504260000000     0.0366559  
H99      H      0.209990000000     0.968330000000     0.446350000000     0.0397445  
H100     H      0.274410000000     0.033280000000     0.536770000000     0.0421614  
H101     H      0.323670000000     0.054410000000     0.504480000000     0.0552774  
H102     H      0.211250000000     0.034340000000     0.536940000000     0.0394812  
H103     H      0.321280000000     0.946940000000     0.475210000000     0.0587484  
H104     H      0.160490000000     0.003640000000     0.436490000000     0.0549782  
H105     H      0.162310000000     0.998340000000     0.548320000000     0.0553244  
H106     H      0.272970000000     0.968970000000     0.444990000000     0.0428584  
H107     H      0.099580000000     0.997640000000     0.548840000000     0.0276128  
H108     H      0.422530000000     0.922660000000     0.427820000000     0.180881   
H109     H      0.599210000000     0.945650000000     0.492070000000     0.0273066  
H110     H      0.885820000000     0.004280000000     0.442310000000     0.0290387  
H111     H      0.711230000000     0.034710000000     0.540650000000     0.0408109  
H112     H      0.772980000000     0.966010000000     0.451020000000     0.0411738  
H113     H      0.823370000000     0.007420000000     0.441310000000     0.0533066  
H114     H      0.709580000000     0.967350000000     0.451220000000     0.0396535  
H115     H      0.820200000000     0.985860000000     0.550460000000     0.0586923  
H116     H      0.662080000000     0.945460000000     0.491490000000     0.0556696  
H117     H      0.661930000000     0.056670000000     0.502030000000     0.0565941  
H118     H      0.774710000000     0.033420000000     0.540410000000     0.044048   
H119     H      0.598920000000     0.056150000000     0.502270000000     0.0299771  
H120     H      0.919420000000     0.936780000000     0.578580000000     0.179777   
H121     H      0.996300000000     0.891430000000     0.552600000000     0.0280487  
H122     H      0.047300000000     0.603810000000     0.490110000000     0.0300016  
H123     H      0.960350000000     0.779650000000     0.544150000000     0.0405725  
H124     H      0.026330000000     0.714320000000     0.455130000000     0.0413378  
H125     H      0.047710000000     0.666160000000     0.489160000000     0.053559   
H126     H      0.027460000000     0.777450000000     0.454390000000     0.0392401  
H127     H      0.939470000000     0.667430000000     0.515610000000     0.0600689  
H128     H      0.997010000000     0.828710000000     0.554220000000     0.0555193  
H129     H      0.991320000000     0.826580000000     0.442430000000     0.0554345  
H130     H      0.960710000000     0.716620000000     0.545960000000     0.0427105  
H131     H      0.991660000000     0.889300000000     0.441670000000     0.0274304  
H132     H      0.879240000000     0.600230000000     0.524110000000     0.184944   
H133     H      0.991190000000     0.102430000000     0.437450000000     0.0269522  
H134     H      0.944700000000     0.390810000000     0.483110000000     0.0342699  
H135     H      0.029610000000     0.214120000000     0.534550000000     0.0400437  
H136     H      0.962310000000     0.279360000000     0.446460000000     0.0411403  
H137     H      0.943340000000     0.328520000000     0.480810000000     0.0551688  
H138     H      0.959160000000     0.216240000000     0.447400000000     0.0393022  
H139     H      0.052600000000     0.325170000000     0.502370000000     0.058494   
H140     H      0.993160000000     0.165150000000     0.435850000000     0.0549505  
H141     H      0.991000000000     0.167230000000     0.547750000000     0.0559637  
H142     H      0.031380000000     0.277110000000     0.534700000000     0.0430951  
H143     H      0.989980000000     0.104530000000     0.548480000000     0.0289198  
H144     H      0.114120000000     0.392120000000     0.507960000000     0.181962   
N1       N      0.901280000000     0.498080000000     0.989040000000    -0.18241    
N2       N      0.604960000000     0.492610000000     0.991150000000    -0.198835   
N3       N      0.104890000000     0.493680000000     0.004360000000    -0.182159   
N4       N      0.401180000000     0.492750000000     0.994670000000    -0.19868    
N5       N      0.496040000000     0.890270000000     0.997550000000    -0.182333   
N6       N      0.503330000000     0.594180000000     0.992660000000    -0.198834   
N7       N      0.494560000000     0.094330000000     0.996920000000    -0.182428   
N8       N      0.502520000000     0.390470000000     0.992710000000    -0.198693   
N9       N      0.487620000000     0.999780000000     0.596840000000    -0.182495   
N10      N      0.494560000000     0.992120000000     0.893010000000    -0.198675   
N11      N      0.492580000000     0.001070000000     0.392790000000    -0.181868   
N12      N      0.496070000000     0.992580000000     0.096760000000    -0.197472   
N13      N      0.998510000000     0.490810000000     0.599370000000    -0.179957   
N14      N      0.008130000000     0.496250000000     0.895150000000    -0.197132   
N15      N      0.994260000000     0.502600000000     0.395100000000    -0.181871   
N16      N      0.997880000000     0.496040000000     0.098940000000    -0.197473   
N17      N      0.390500000000     0.999580000000     0.489270000000    -0.180492   
N18      N      0.093970000000     0.999500000000     0.493420000000    -0.198606   
N19      N      0.889970000000     0.993470000000     0.496950000000    -0.181896   
N20      N      0.594360000000     0.000910000000     0.497090000000    -0.19827    
N21      N      0.993390000000     0.598750000000     0.503680000000    -0.18159    
N22      N      0.993930000000     0.895080000000     0.497050000000    -0.198036   
N23      N      0.999140000000     0.394840000000     0.494780000000    -0.181195   
N24      N      0.990670000000     0.098770000000     0.493060000000    -0.198449   
Ni1      Ni     0.991550000000     0.996320000000     0.464270000000     1.00249    
Ni2      Ni     0.992620000000     0.997530000000     0.525900000000     1.01306    
Ni3      Ni     0.965580000000     0.495950000000     0.497830000000     1.03016    
Ni4      Ni     0.027020000000     0.497800000000     0.496660000000     1.00736    
Ni5      Ni     0.492670000000     0.969610000000     0.494620000000     1.01174    
Ni6      Ni     0.492230000000     0.031140000000     0.495060000000     1.0215     
Ni7      Ni     0.526220000000     0.992520000000     0.994680000000     1.00014    
Ni8      Ni     0.464620000000     0.992000000000     0.995130000000     1.02749    
Ni9      Ni     0.002390000000     0.465260000000     0.996970000000     1.00977    
Ni10     Ni     0.003780000000     0.526800000000     0.997100000000     1.01242    
Ni11     Ni     0.503640000000     0.492370000000     0.023510000000     1.00874    
Ni12     Ni     0.502510000000     0.492300000000     0.961820000000     1.00217    
O1       O      0.990380000000     0.045970000000     0.465280000000    -0.449503   
O2       O      0.992790000000     0.946750000000     0.467250000000    -0.448751   
O3       O      0.941910000000     0.994980000000     0.467240000000    -0.447587   
O4       O      0.041250000000     0.997700000000     0.465430000000    -0.449088   
O5       O      0.042210000000     0.998530000000     0.523080000000    -0.450333   
O6       O      0.942990000000     0.996390000000     0.524720000000    -0.435573   
O7       O      0.993660000000     0.947870000000     0.524880000000    -0.445607   
O8       O      0.991510000000     0.047110000000     0.522910000000    -0.448299   
O9       O      0.969010000000     0.446450000000     0.495820000000    -0.442295   
O10      O      0.966130000000     0.545540000000     0.500020000000    -0.429073   
O11      O      0.966570000000     0.498130000000     0.448150000000    -0.434948   
O12      O      0.968620000000     0.493900000000     0.547410000000    -0.428258   
O13      O      0.026050000000     0.494630000000     0.546320000000    -0.439419   
O14      O      0.023950000000     0.500790000000     0.447080000000    -0.446884   
O15      O      0.023580000000     0.547280000000     0.499800000000    -0.447395   
O16      O      0.026420000000     0.448220000000     0.493860000000    -0.434211   
O17      O      0.542260000000     0.971900000000     0.495890000000    -0.451282   
O18      O      0.443110000000     0.971310000000     0.493060000000    -0.434939   
O19      O      0.493850000000     0.971970000000     0.444990000000    -0.445191   
O20      O      0.491110000000     0.971340000000     0.544310000000    -0.447293   
O21      O      0.490390000000     0.028810000000     0.544570000000    -0.43758    
O22      O      0.493800000000     0.029440000000     0.445500000000    -0.437354   
O23      O      0.442560000000     0.028790000000     0.493130000000    -0.436936   
O24      O      0.541930000000     0.029480000000     0.496830000000    -0.447443   
O25      O      0.524570000000     0.992630000000     0.044340000000    -0.448224   
O26      O      0.523860000000     0.992460000000     0.945020000000    -0.450044   
O27      O      0.523750000000     0.042170000000     0.994770000000    -0.447441   
O28      O      0.524530000000     0.942800000000     0.994940000000    -0.447298   
O29      O      0.467010000000     0.942510000000     0.995420000000    -0.438135   
O30      O      0.466250000000     0.041590000000     0.995090000000    -0.436891   
O31      O      0.466240000000     0.991810000000     0.945500000000    -0.449763   
O32      O      0.466940000000     0.992110000000     0.044720000000    -0.440509   
O33      O      0.998890000000     0.467200000000     0.046610000000    -0.444384   
O34      O      0.006000000000     0.467320000000     0.947360000000    -0.446339   
O35      O      0.051870000000     0.466170000000     0.000580000000    -0.43594    
O36      O      0.952970000000     0.468390000000     0.993290000000    -0.449207   
O37      O      0.954160000000     0.525840000000     0.994190000000    -0.434668   
O38      O      0.053320000000     0.523640000000     0.999970000000    -0.448639   
O39      O      0.006360000000     0.524920000000     0.947480000000    -0.442667   
O40      O      0.001070000000     0.524760000000     0.046710000000    -0.447612   
O41      O      0.503440000000     0.442720000000     0.021510000000    -0.449822   
O42      O      0.503860000000     0.541960000000     0.021450000000    -0.450551   
O43      O      0.454000000000     0.492620000000     0.022390000000    -0.450726   
O44      O      0.553170000000     0.492240000000     0.020670000000    -0.451146   
O45      O      0.552260000000     0.492220000000     0.963010000000    -0.44858    
O46      O      0.452860000000     0.492340000000     0.964740000000    -0.448774   
O47      O      0.502580000000     0.541950000000     0.963800000000    -0.449227   
O48      O      0.502420000000     0.442680000000     0.963850000000    -0.449322   
O49      O      0.888780000000     0.591140000000     0.979020000000    -0.333814   
O50      O      0.920700000000     0.558120000000     0.943980000000    -0.227726   
O51      O      0.082790000000     0.437490000000     0.055210000000    -0.320935   
O52      O      0.114930000000     0.404070000000     0.020750000000    -0.237759   
O53      O      0.439100000000     0.909480000000     0.049170000000    -0.321144   
O54      O      0.406780000000     0.877560000000     0.013470000000    -0.237256   
O55      O      0.401820000000     0.107710000000     0.008090000000    -0.33332    
O56      O      0.435230000000     0.077570000000     0.044310000000    -0.226818   
O57      O      0.474230000000     0.092190000000     0.611200000000    -0.333845   
O58      O      0.439610000000     0.058220000000     0.579840000000    -0.227679   
O59      O      0.441880000000     0.059270000000     0.411400000000    -0.317078   
O60      O      0.479480000000     0.090690000000     0.380780000000    -0.236511   
O61      O      0.905730000000     0.486940000000     0.615430000000    -0.328721   
O62      O      0.935220000000     0.447710000000     0.584970000000    -0.222204   
O63      O      0.900730000000     0.504930000000     0.382220000000    -0.332967   
O64      O      0.930860000000     0.543990000000     0.412270000000    -0.220516   
O65      O      0.411810000000     0.942570000000     0.438690000000    -0.317411   
O66      O      0.379400000000     0.910070000000     0.473760000000    -0.236995   
O67      O      0.909120000000     0.946500000000     0.557850000000    -0.320368   
O68      O      0.878750000000     0.985690000000     0.587510000000    -0.23806    
O69      O      0.900280000000     0.610150000000     0.514690000000    -0.328696   
O70      O      0.934200000000     0.579580000000     0.550070000000    -0.220274   
O71      O      0.092420000000     0.382830000000     0.499440000000    -0.333254   
O72      O      0.061240000000     0.410810000000     0.539230000000    -0.224394   


