data_structure

_audit_creation_method RASPA-1.0
_audit_creation_date 2023-5-19
_audit_author_name 'Poobodin Mano'

_cell_length_a    38.5666
_cell_length_b    38.5527
_cell_length_c    38.5654
_cell_angle_alpha 90
_cell_angle_beta  90
_cell_angle_gamma 90
_cell_volume      57340.8

_symmetry_cell_setting          triclinic
_symmetry_space_group_name_Hall 'P 1'
_symmetry_space_group_name_H-M  'P 1'
_symmetry_Int_Tables_number     1

_symmetry_equiv_pos_as_xyz 'x,y,z'

loop_
_atom_site_label
_atom_site_type_symbol
_atom_site_fract_x
_atom_site_fract_y
_atom_site_fract_z
_atom_site_charge
C1       C      0.997720000000     0.057820000000     0.496850000000     0.444966   
C2       C      0.992190000000     0.925010000000     0.498500000000     0.446968   
C3       C      0.928610000000     0.992810000000     0.494530000000     0.446205   
C4       C      0.061260000000     0.988780000000     0.500560000000     0.445703   
C5       C      0.993230000000     0.424980000000     0.491600000000     0.436206   
C6       C      0.994040000000     0.557680000000     0.495170000000     0.435673   
C7       C      0.994550000000     0.493180000000     0.427120000000     0.435254   
C8       C      0.992680000000     0.488890000000     0.559810000000     0.44389    
C9       C      0.561020000000     0.996210000000     0.495350000000     0.435664   
C10      C      0.428420000000     0.994470000000     0.499790000000     0.43703    
C11      C      0.491690000000     0.995260000000     0.431240000000     0.444559   
C12      C      0.496930000000     0.995350000000     0.563840000000     0.435668   
C13      C      0.490760000000     0.002700000000     0.063730000000     0.436179   
C14      C      0.490270000000     0.001730000000     0.930960000000     0.444634   
C15      C      0.488780000000     0.068550000000     0.996360000000     0.44465    
C16      C      0.492250000000     0.935830000000     0.997930000000     0.436731   
C17      C      0.001840000000     0.498790000000     0.059610000000     0.44429    
C18      C      0.999160000000     0.495890000000     0.926920000000     0.435508   
C19      C      0.066490000000     0.498310000000     0.992440000000     0.437713   
C20      C      0.933900000000     0.496320000000     0.994190000000     0.43627    
C21      C      0.498090000000     0.435980000000     0.994180000000     0.436835   
C22      C      0.502370000000     0.568680000000     0.991570000000     0.446592   
C23      C      0.433900000000     0.504960000000     0.995080000000     0.445705   
C24      C      0.566580000000     0.500520000000     0.990560000000     0.444531   
C25      C      0.657200000000     0.499180000000     0.959070000000    -0.118704   
C26      C      0.880640000000     0.464930000000     0.994990000000     0.0769017  
C27      C      0.879980000000     0.526400000000     0.993630000000     0.0777104  
C28      C      0.844420000000     0.464070000000     0.994630000000    -0.0933535  
C29      C      0.767990000000     0.471770000000     0.013350000000    -0.0343428  
C30      C      0.731740000000     0.471920000000     0.012580000000    -0.0310966  
C31      C      0.787050000000     0.494790000000     0.992450000000    -0.00475643 
C32      C      0.843800000000     0.526480000000     0.993160000000    -0.0930689  
C33      C      0.713770000000     0.494980000000     0.990780000000    -0.00955724 
C34      C      0.656310000000     0.493990000000     0.021060000000    -0.100589   
C35      C      0.732860000000     0.517830000000     0.969750000000    -0.0306303  
C36      C      0.620210000000     0.496030000000     0.020230000000     0.0823907  
C37      C      0.620910000000     0.501660000000     0.958830000000     0.172332   
C38      C      0.769050000000     0.517740000000     0.970580000000    -0.0335818  
C39      C      0.825550000000     0.495080000000     0.993520000000     0.0524341  
C40      C      0.675260000000     0.495650000000     0.990280000000     0.0670922  
C41      C      0.343550000000     0.510890000000     0.026480000000    -0.11774    
C42      C      0.120550000000     0.468440000000     0.994050000000     0.0780682  
C43      C      0.119580000000     0.529870000000     0.991480000000     0.0799398  
C44      C      0.156750000000     0.468570000000     0.994700000000    -0.0928602  
C45      C      0.232800000000     0.476130000000     0.975930000000    -0.0342595  
C46      C      0.269020000000     0.476900000000     0.976580000000    -0.0307778  
C47      C      0.213390000000     0.500720000000     0.994600000000    -0.00418461 
C48      C      0.155770000000     0.530930000000     0.992030000000    -0.0920613  
C49      C      0.286710000000     0.502270000000     0.995890000000    -0.00920765 
C50      C      0.344000000000     0.498000000000     0.965590000000    -0.0998908  
C51      C      0.267300000000     0.526780000000     0.014650000000    -0.0300918  
C52      C      0.380100000000     0.499500000000     0.966010000000     0.0836208  
C53      C      0.379910000000     0.512960000000     0.026200000000     0.170969   
C54      C      0.231080000000     0.525990000000     0.014040000000    -0.0334092  
C55      C      0.174850000000     0.500060000000     0.993750000000     0.0529041  
C56      C      0.325240000000     0.503440000000     0.996080000000     0.0668806  
C57      C      0.500440000000     0.659920000000     0.961840000000    -0.118456   
C58      C      0.524320000000     0.883020000000     0.998760000000     0.0775987  
C59      C      0.462880000000     0.881480000000     0.996940000000     0.0784426  
C60      C      0.525700000000     0.846830000000     0.998550000000    -0.0931977  
C61      C      0.518520000000     0.770690000000     0.018530000000    -0.0338756  
C62      C      0.519570000000     0.734480000000     0.017740000000    -0.0303657  
C63      C      0.495970000000     0.789050000000     0.996560000000    -0.00438569 
C64      C      0.463340000000     0.845270000000     0.996460000000    -0.0924673  
C65      C      0.498260000000     0.715850000000     0.994770000000    -0.00919716 
C66      C      0.501060000000     0.657950000000     0.024020000000    -0.0997099  
C67      C      0.475710000000     0.734200000000     0.972790000000    -0.0300739  
C68      C      0.502480000000     0.621860000000     0.022390000000     0.085766   
C69      C      0.502650000000     0.623610000000     0.960750000000     0.173968   
C70      C      0.474490000000     0.770410000000     0.973760000000    -0.033319   
C71      C      0.494990000000     0.827510000000     0.997260000000     0.052917   
C72      C      0.499740000000     0.677400000000     0.993550000000     0.0684428  
C73      C      0.458110000000     0.159450000000     0.993780000000    -0.118607   
C74      C      0.495460000000     0.381860000000     0.964510000000     0.0781447  
C75      C      0.497030000000     0.383000000000     0.025960000000     0.077892   
C76      C      0.494100000000     0.345670000000     0.964760000000    -0.0925093  
C77      C      0.470910000000     0.271080000000     0.974030000000    -0.0335187  
C78      C      0.469700000000     0.234870000000     0.974420000000    -0.0306531  
C79      C      0.492650000000     0.289170000000     0.997020000000    -0.00448068 
C80      C      0.495700000000     0.346820000000     0.027140000000    -0.0926086  
C81      C      0.490210000000     0.215880000000     0.997830000000    -0.00953034 
C82      C      0.519930000000     0.158180000000     0.000650000000    -0.100607   
C83      C      0.511870000000     0.233960000000     0.020920000000    -0.0310148  
C84      C      0.518830000000     0.122050000000     0.999620000000     0.0819266  
C85      C      0.457620000000     0.123090000000     0.992250000000     0.172047   
C86      C      0.513050000000     0.270190000000     0.020550000000    -0.0342402  
C87      C      0.494170000000     0.327680000000     0.996310000000     0.0524409  
C88      C      0.489370000000     0.177350000000     0.997760000000     0.0669213  
C89      C      0.461870000000     0.997960000000     0.839360000000    -0.118749   
C90      C      0.498790000000     0.026060000000     0.617410000000     0.0770532  
C91      C      0.497120000000     0.964580000000     0.617420000000     0.0772105  
C92      C      0.499090000000     0.026520000000     0.653610000000    -0.0933565  
C93      C      0.519360000000     0.017790000000     0.729440000000    -0.0342666  
C94      C      0.518420000000     0.018260000000     0.765650000000    -0.0306895  
C95      C      0.497600000000     0.995380000000     0.710650000000    -0.00463137 
C96      C      0.497180000000     0.964120000000     0.653630000000    -0.0932213  
C97      C      0.495530000000     0.996500000000     0.783860000000    -0.00953371 
C98      C      0.523990000000     0.999510000000     0.842170000000    -0.10098    
C99      C      0.473900000000     0.973970000000     0.765080000000    -0.0306045  
C100     C      0.521850000000     0.001120000000     0.878220000000     0.0827265  
C101     C      0.460250000000     0.000320000000     0.875620000000     0.173063   
C102     C      0.475000000000     0.973340000000     0.728880000000    -0.0334643  
C103     C      0.498100000000     0.995320000000     0.672160000000     0.0525499  
C104     C      0.493810000000     0.997740000000     0.822300000000     0.0676926  
C105     C      0.485170000000     0.966220000000     0.340180000000    -0.118355   
C106     C      0.521640000000     0.002690000000     0.117260000000     0.0768426  
C107     C      0.460170000000     0.002610000000     0.117390000000     0.0777937  
C108     C      0.522180000000     0.002210000000     0.153470000000    -0.093012   
C109     C      0.515270000000     0.020250000000     0.229840000000    -0.0345113  
C110     C      0.515300000000     0.019120000000     0.266080000000    -0.0311426  
C111     C      0.491070000000     0.000810000000     0.210690000000    -0.00439016 
C112     C      0.459790000000     0.002220000000     0.153590000000    -0.0924363  
C113     C      0.491130000000     0.998540000000     0.284020000000    -0.00957057 
C114     C      0.495910000000     0.027510000000     0.342060000000    -0.100654   
C115     C      0.466900000000     0.979180000000     0.264860000000    -0.0306991  
C116     C      0.495230000000     0.026050000000     0.378180000000     0.0818706  
C117     C      0.483870000000     0.965430000000     0.376540000000     0.170157   
C118     C      0.466900000000     0.980250000000     0.228660000000    -0.0339258  
C119     C      0.491020000000     0.001860000000     0.172130000000     0.0521362  
C120     C      0.491050000000     0.997370000000     0.322570000000     0.066359   
C121     C      0.962750000000     0.486110000000     0.650870000000    -0.118409   
C122     C      0.000690000000     0.464160000000     0.873900000000     0.0769073  
C123     C      0.995730000000     0.525450000000     0.872760000000     0.0770145  
C124     C      0.000250000000     0.463000000000     0.837700000000    -0.0932497  
C125     C      0.020280000000     0.472480000000     0.761620000000    -0.0342739  
C126     C      0.019690000000     0.471820000000     0.725390000000    -0.0310056  
C127     C      0.996500000000     0.492960000000     0.780140000000    -0.00486692 
C128     C      0.994840000000     0.525180000000     0.836560000000    -0.093275   
C129     C      0.995070000000     0.491360000000     0.706930000000    -0.00975148 
C130     C      0.024630000000     0.492490000000     0.649160000000    -0.10091    
C131     C      0.971200000000     0.511740000000     0.725450000000    -0.0309181  
C132     C      0.023290000000     0.491300000000     0.613050000000     0.0820877  
C133     C      0.962070000000     0.483960000000     0.614530000000     0.170277   
C134     C      0.972030000000     0.512680000000     0.761680000000    -0.0337363  
C135     C      0.997200000000     0.493720000000     0.818600000000     0.0522963  
C136     C      0.994130000000     0.490260000000     0.668480000000     0.0667216  
C137     C      0.006330000000     0.529610000000     0.150230000000    -0.118098   
C138     C      0.026060000000     0.494200000000     0.374000000000     0.0766258  
C139     C      0.964610000000     0.494950000000     0.373090000000     0.0764379  
C140     C      0.027080000000     0.495080000000     0.337810000000    -0.0932598  
C141     C      0.021570000000     0.517100000000     0.262560000000    -0.0339276  
C142     C      0.022410000000     0.517790000000     0.226350000000    -0.0308967  
C143     C      0.996810000000     0.496950000000     0.280190000000    -0.00482915 
C144     C      0.964690000000     0.495900000000     0.336870000000    -0.0930558  
C145     C      0.998450000000     0.498420000000     0.206840000000    -0.00963633 
C146     C      0.994990000000     0.468400000000     0.149270000000    -0.100735   
C147     C      0.973610000000     0.478360000000     0.224450000000    -0.031347   
C148     C      0.996660000000     0.469130000000     0.113160000000     0.0816716  
C149     C      0.008600000000     0.529650000000     0.113900000000     0.170063   
C150     C      0.972790000000     0.477630000000     0.260680000000    -0.0346811  
C151     C      0.996170000000     0.495970000000     0.318740000000     0.0517035  
C152     C      0.999620000000     0.498870000000     0.168290000000     0.0661015  
C153     C      0.151510000000     0.986680000000     0.532980000000    -0.118369   
C154     C      0.375270000000     0.963010000000     0.498940000000     0.0796702  
C155     C      0.374420000000     0.024360000000     0.503150000000     0.0780614  
C156     C      0.339080000000     0.962020000000     0.499260000000    -0.0921122  
C157     C      0.263480000000     0.971430000000     0.478080000000    -0.0341535  
C158     C      0.227260000000     0.970890000000     0.478020000000    -0.0304944  
C159     C      0.281640000000     0.992260000000     0.501840000000    -0.0043296  
C160     C      0.338200000000     0.024270000000     0.503900000000    -0.0930188  
C161     C      0.208410000000     0.990920000000     0.501920000000    -0.00944256 
C162     C      0.151410000000     0.991700000000     0.470960000000    -0.100796   
C163     C      0.226550000000     0.011640000000     0.525800000000    -0.0304568  
C164     C      0.115290000000     0.990580000000     0.471380000000     0.0837506  
C165     C      0.115150000000     0.984630000000     0.532760000000     0.174665   
C166     C      0.262800000000     0.012450000000     0.525630000000    -0.0334694  
C167     C      0.320110000000     0.992870000000     0.501760000000     0.0530357  
C168     C      0.169930000000     0.990070000000     0.501980000000     0.0681346  
C169     C      0.838570000000     0.989900000000     0.461770000000    -0.117807   
C170     C      0.614930000000     0.966070000000     0.494730000000     0.0775515  
C171     C      0.614280000000     0.027540000000     0.493420000000     0.0767226  
C172     C      0.651130000000     0.965970000000     0.494070000000    -0.0925749  
C173     C      0.726790000000     0.022120000000     0.511820000000    -0.0340349  
C174     C      0.763050000000     0.021950000000     0.511600000000    -0.0309883  
C175     C      0.707990000000     0.997630000000     0.492390000000    -0.00442947 
C176     C      0.650500000000     0.028370000000     0.492710000000    -0.093027   
C177     C      0.781370000000     0.997310000000     0.491910000000    -0.00877962 
C178     C      0.838390000000     0.001330000000     0.522940000000    -0.0986393  
C179     C      0.762550000000     0.972950000000     0.472360000000    -0.0304464  
C180     C      0.874510000000     0.999420000000     0.522930000000     0.0851249  
C181     C      0.874870000000     0.987410000000     0.462430000000     0.171609   
C182     C      0.726330000000     0.973140000000     0.472560000000    -0.0335798  
C183     C      0.669420000000     0.997350000000     0.493050000000     0.05216    
C184     C      0.819940000000     0.996600000000     0.492140000000     0.0671749  
C185     C      0.988340000000     0.834030000000     0.528620000000    -0.118109   
C186     C      0.024930000000     0.611120000000     0.498750000000     0.0773138  
C187     C      0.963710000000     0.611470000000     0.493070000000     0.0777858  
C188     C      0.025560000000     0.647360000000     0.499190000000    -0.0932645  
C189     C      0.014290000000     0.723000000000     0.520760000000    -0.0331127  
C190     C      0.013870000000     0.759260000000     0.521170000000    -0.0307061  
C191     C      0.994740000000     0.704550000000     0.496150000000    -0.0047611  
C192     C      0.963460000000     0.647700000000     0.493010000000    -0.0928216  
C193     C      0.994220000000     0.777810000000     0.496710000000    -0.00910726 
C194     C      0.996500000000     0.835500000000     0.466950000000    -0.0999081  
C195     C      0.974990000000     0.759360000000     0.471840000000    -0.0307767  
C196     C      0.995380000000     0.871640000000     0.468120000000     0.0858072  
C197     C      0.986250000000     0.870380000000     0.529110000000     0.175104   
C198     C      0.975100000000     0.723110000000     0.471690000000    -0.0338038  
C199     C      0.994600000000     0.666070000000     0.496120000000     0.0527114  
C200     C      0.993350000000     0.816290000000     0.497440000000     0.0683783  
C201     C      0.999590000000     0.149430000000     0.524950000000    -0.118899   
C202     C      0.962310000000     0.371460000000     0.492490000000     0.0788275  
C203     C      0.023660000000     0.371290000000     0.488570000000     0.0776143  
C204     C      0.961740000000     0.335210000000     0.492310000000    -0.0923631  
C205     C      0.972540000000     0.259730000000     0.514200000000    -0.0337523  
C206     C      0.973350000000     0.223490000000     0.515080000000    -0.030646   
C207     C      0.992820000000     0.278110000000     0.490140000000    -0.00459728 
C208     C      0.023990000000     0.335070000000     0.487930000000    -0.0930549  
C209     C      0.994170000000     0.204870000000     0.491670000000    -0.0097744  
C210     C      0.994240000000     0.146530000000     0.463020000000    -0.100366   
C211     C      0.014050000000     0.223230000000     0.467260000000    -0.0308177  
C212     C      0.995780000000     0.110420000000     0.465040000000     0.0826806  
C213     C      0.002130000000     0.113140000000     0.526340000000     0.171909   
C214     C      0.013530000000     0.259480000000     0.466630000000    -0.0345433  
C215     C      0.992820000000     0.316600000000     0.489980000000     0.0525222  
C216     C      0.995680000000     0.166430000000     0.493210000000     0.0672018  
H1       H      0.892990000000     0.551330000000     0.993300000000     0.0305366  
H2       H      0.606910000000     0.494440000000     0.044960000000     0.0285765  
H3       H      0.782960000000     0.535530000000     0.953890000000     0.0424034  
H4       H      0.717770000000     0.453820000000     0.028900000000     0.039822   
H5       H      0.669280000000     0.491710000000     0.045870000000     0.0581391  
H6       H      0.781080000000     0.453970000000     0.030680000000     0.0403965  
H7       H      0.671230000000     0.500690000000     0.934770000000     0.0811598  
H8       H      0.830240000000     0.551080000000     0.992840000000     0.0571767  
H9       H      0.831350000000     0.439210000000     0.994600000000     0.0558656  
H10      H      0.719820000000     0.536190000000     0.952970000000     0.0446176  
H11      H      0.894220000000     0.440310000000     0.995580000000     0.0276766  
H12      H      0.105910000000     0.554410000000     0.990130000000     0.033434   
H13      H      0.393250000000     0.494460000000     0.941680000000     0.0310173  
H14      H      0.216950000000     0.545070000000     0.029040000000     0.0435828  
H15      H      0.283180000000     0.457430000000     0.962090000000     0.0404779  
H16      H      0.330880000000     0.492860000000     0.941290000000     0.05938    
H17      H      0.220020000000     0.456530000000     0.960400000000     0.040867   
H18      H      0.329680000000     0.515810000000     0.050420000000     0.0804443  
H19      H      0.168670000000     0.555850000000     0.990720000000     0.0581895  
H20      H      0.170410000000     0.444090000000     0.996480000000     0.0563504  
H21      H      0.280070000000     0.546940000000     0.029460000000     0.0442249  
H22      H      0.107650000000     0.443480000000     0.995020000000     0.0283122  
H23      H      0.437790000000     0.894150000000     0.996350000000     0.0324923  
H24      H      0.502840000000     0.608150000000     0.046940000000     0.0336994  
H25      H      0.457060000000     0.783840000000     0.956300000000     0.0435677  
H26      H      0.537430000000     0.721060000000     0.034770000000     0.0413656  
H27      H      0.500370000000     0.670490000000     0.049140000000     0.0607681  
H28      H      0.535170000000     0.784340000000     0.036580000000     0.0414202  
H29      H      0.500570000000     0.674470000000     0.937790000000     0.0817792  
H30      H      0.438980000000     0.831280000000     0.995850000000     0.0582831  
H31      H      0.550730000000     0.834080000000     0.998850000000     0.0567137  
H32      H      0.458790000000     0.720530000000     0.955010000000     0.0451774  
H33      H      0.548740000000     0.896940000000     0.999560000000     0.028115   
H34      H      0.498040000000     0.396750000000     0.050460000000     0.0301802  
H35      H      0.543380000000     0.108600000000     0.002280000000     0.0277695  
H36      H      0.530330000000     0.283320000000     0.038380000000     0.0406079  
H37      H      0.453060000000     0.221750000000     0.956000000000     0.0443373  
H38      H      0.544790000000     0.170990000000     0.003240000000     0.0577942  
H39      H      0.454580000000     0.284920000000     0.955840000000     0.0422939  
H40      H      0.433990000000     0.173640000000     0.991210000000     0.0809787  
H41      H      0.495390000000     0.333990000000     0.052120000000     0.0566338  
H42      H      0.493430000000     0.331900000000     0.940290000000     0.0574065  
H43      H      0.527770000000     0.220100000000     0.039470000000     0.039767   
H44      H      0.495420000000     0.394670000000     0.939490000000     0.0316636  
H45      H      0.496390000000     0.939810000000     0.604130000000     0.0293317  
H46      H      0.546190000000     0.002000000000     0.892260000000     0.0282017  
H47      H      0.457700000000     0.955990000000     0.715120000000     0.0426154  
H48      H      0.535190000000     0.036130000000     0.779390000000     0.0408692  
H49      H      0.549290000000     0.999150000000     0.829970000000     0.0584446  
H50      H      0.537270000000     0.034850000000     0.716130000000     0.0410173  
H51      H      0.438000000000     0.997610000000     0.824510000000     0.0816199  
H52      H      0.496800000000     0.939410000000     0.667000000000     0.0569724  
H53      H      0.499460000000     0.051240000000     0.666960000000     0.0565112  
H54      H      0.456200000000     0.956700000000     0.778410000000     0.0443916  
H55      H      0.499300000000     0.050840000000     0.604120000000     0.0279141  
H56      H      0.435370000000     0.002860000000     0.104160000000     0.0318195  
H57      H      0.499720000000     0.050160000000     0.391950000000     0.0272209  
H58      H      0.448150000000     0.964650000000     0.214740000000     0.0419932  
H59      H      0.534510000000     0.034130000000     0.280030000000     0.0397657  
H60      H      0.499920000000     0.052330000000     0.329510000000     0.0576117  
H61      H      0.534010000000     0.036650000000     0.216850000000     0.0404117  
H62      H      0.480800000000     0.942490000000     0.325770000000     0.0801234  
H63      H      0.435070000000     0.002520000000     0.166920000000     0.0572173  
H64      H      0.546950000000     0.001510000000     0.166690000000     0.0556718  
H65      H      0.447610000000     0.963410000000     0.277830000000     0.0432922  
H66      H      0.546370000000     0.002720000000     0.103900000000     0.0277695  
H67      H      0.993970000000     0.550410000000     0.885590000000     0.0292153  
H68      H      0.047720000000     0.494000000000     0.599400000000     0.0277564  
H69      H      0.953220000000     0.528510000000     0.775280000000     0.0424197  
H70      H      0.038210000000     0.455650000000     0.711810000000     0.0408678  
H71      H      0.049470000000     0.495800000000     0.661850000000     0.0582959  
H72      H      0.039600000000     0.457220000000     0.775160000000     0.0411649  
H73      H      0.938890000000     0.482900000000     0.665370000000     0.0808948  
H74      H      0.992770000000     0.549540000000     0.822710000000     0.056944   
H75      H      0.001830000000     0.438100000000     0.824760000000     0.0566112  
H76      H      0.952070000000     0.527210000000     0.711890000000     0.044169   
H77      H      0.002930000000     0.439730000000     0.887650000000     0.028044   
H78      H      0.939650000000     0.495030000000     0.386010000000     0.0286565  
H79      H      0.992280000000     0.444790000000     0.099760000000     0.0271953  
H80      H      0.953600000000     0.461550000000     0.273400000000     0.0402115  
H81      H      0.042180000000     0.533170000000     0.213660000000     0.0432606  
H82      H      0.990400000000     0.443880000000     0.162180000000     0.0574284  
H83      H      0.040200000000     0.532590000000     0.276750000000     0.0415103  
H84      H      0.010590000000     0.553560000000     0.164300000000     0.0801026  
H85      H      0.940170000000     0.497040000000     0.323240000000     0.0558331  
H86      H      0.052010000000     0.494590000000     0.324910000000     0.0557293  
H87      H      0.954580000000     0.463380000000     0.210220000000     0.0395274  
H88      H      0.050630000000     0.493430000000     0.387640000000     0.0278061  
H89      H      0.387380000000     0.049270000000     0.504630000000     0.0282604  
H90      H      0.102310000000     0.992750000000     0.446530000000     0.0290911  
H91      H      0.276110000000     0.028560000000     0.544410000000     0.0427614  
H92      H      0.213990000000     0.954440000000     0.459510000000     0.0414811  
H93      H      0.164730000000     0.994460000000     0.446370000000     0.0590122  
H94      H      0.277310000000     0.955810000000     0.459270000000     0.0429483  
H95      H      0.165380000000     0.984010000000     0.557280000000     0.0825849  
H96      H      0.324460000000     0.048720000000     0.505570000000     0.0567164  
H97      H      0.326050000000     0.937160000000     0.497910000000     0.0586968  
H98      H      0.212680000000     0.027510000000     0.544380000000     0.0455309  
H99      H      0.388900000000     0.938490000000     0.497020000000     0.0340812  
H100     H      0.600720000000     0.052170000000     0.493050000000     0.0276294  
H101     H      0.887460000000     0.003690000000     0.547520000000     0.0351969  
H102     H      0.712690000000     0.954160000000     0.456990000000     0.0424014  
H103     H      0.776750000000     0.041250000000     0.526720000000     0.0410666  
H104     H      0.825020000000     0.006010000000     0.547190000000     0.0609132  
H105     H      0.713500000000     0.041130000000     0.527650000000     0.0408969  
H106     H      0.824960000000     0.985710000000     0.437550000000     0.0802077  
H107     H      0.663540000000     0.053220000000     0.491480000000     0.0556843  
H108     H      0.664650000000     0.941360000000     0.494880000000     0.0572662  
H109     H      0.775790000000     0.953320000000     0.457260000000     0.0442842  
H110     H      0.601920000000     0.941160000000     0.495650000000     0.0306512  
H111     H      0.938980000000     0.598320000000     0.490690000000     0.0306321  
H112     H      0.998780000000     0.885210000000     0.443730000000     0.0327532  
H113     H      0.960000000000     0.709570000000     0.452250000000     0.041867   
H114     H      0.029090000000     0.772820000000     0.540490000000     0.0455522  
H115     H      0.000450000000     0.822700000000     0.442250000000     0.0603973  
H116     H      0.029490000000     0.709370000000     0.540060000000     0.04276    
H117     H      0.984420000000     0.819610000000     0.552440000000     0.0823459  
H118     H      0.938930000000     0.661230000000     0.490940000000     0.057906   
H119     H      0.050210000000     0.660640000000     0.501400000000     0.0566541  
H120     H      0.959390000000     0.772970000000     0.452860000000     0.0426375  
H121     H      0.049520000000     0.597670000000     0.500960000000     0.0280046  
H122     H      0.048430000000     0.384520000000     0.487170000000     0.0280873  
H123     H      0.993580000000     0.096250000000     0.440860000000     0.0302969  
H124     H      0.029220000000     0.272960000000     0.447630000000     0.0408572  
H125     H      0.957590000000     0.210010000000     0.534020000000     0.0444113  
H126     H      0.991240000000     0.158740000000     0.437890000000     0.0589305  
H127     H      0.956530000000     0.273400000000     0.532800000000     0.0436048  
H128     H      0.002350000000     0.164410000000     0.548580000000     0.081774   
H129     H      0.048610000000     0.321620000000     0.486450000000     0.0565307  
H130     H      0.937060000000     0.321870000000     0.493640000000     0.0578344  
H131     H      0.030550000000     0.209570000000     0.449080000000     0.0407457  
H132     H      0.937640000000     0.384830000000     0.494270000000     0.0332722  
N1       N      0.602320000000     0.499660000000     0.989540000000    -0.206391   
N2       N      0.898310000000     0.495860000000     0.994340000000    -0.198231   
N3       N      0.604480000000     0.508230000000     0.926120000000    -0.0328204  
N4       N      0.398200000000     0.506200000000     0.996030000000    -0.206285   
N5       N      0.102070000000     0.498870000000     0.992560000000    -0.197566   
N6       N      0.396740000000     0.524770000000     0.057250000000    -0.0317874  
N7       N      0.502870000000     0.604470000000     0.991200000000    -0.205382   
N8       N      0.493150000000     0.900240000000     0.997930000000    -0.197996   
N9       N      0.506120000000     0.607690000000     0.927320000000    -0.0326856  
N10      N      0.488080000000     0.104320000000     0.995790000000    -0.206396   
N11      N      0.496880000000     0.400420000000     0.994880000000    -0.197888   
N12      N      0.425050000000     0.106720000000     0.984860000000    -0.032897   
N13      N      0.490410000000     0.001320000000     0.895170000000    -0.206153   
N14      N      0.497700000000     0.995330000000     0.599420000000    -0.198399   
N15      N      0.426520000000     0.002870000000     0.891040000000    -0.0327122  
N16      N      0.489920000000     0.995320000000     0.395550000000    -0.206763   
N17      N      0.490860000000     0.002730000000     0.099320000000    -0.197978   
N18      N      0.473450000000     0.933520000000     0.392690000000    -0.0316973  
N19      N      0.992380000000     0.487690000000     0.595550000000    -0.20644    
N20      N      0.998540000000     0.495160000000     0.891330000000    -0.198287   
N21      N      0.929630000000     0.475330000000     0.598440000000    -0.0315334  
N22      N      0.002730000000     0.499450000000     0.095330000000    -0.20662    
N23      N      0.995070000000     0.494120000000     0.391540000000    -0.198381   
N24      N      0.019760000000     0.561130000000     0.097390000000    -0.0317012  
N25      N      0.096980000000     0.987630000000     0.501880000000    -0.205792   
N26      N      0.392840000000     0.993960000000     0.500680000000    -0.197406   
N27      N      0.098180000000     0.976960000000     0.565000000000    -0.0316578  
N28      N      0.892890000000     0.992960000000     0.493030000000    -0.20531    
N29      N      0.596600000000     0.996620000000     0.494450000000    -0.19806    
N30      N      0.891870000000     0.976280000000     0.431230000000    -0.0318025  
N31      N      0.990900000000     0.889260000000     0.498860000000    -0.205018   
N32      N      0.994240000000     0.593280000000     0.495730000000    -0.198008   
N33      N      0.976840000000     0.886580000000     0.561270000000    -0.0312304  
N34      N      0.998940000000     0.093560000000     0.496350000000    -0.206237   
N35      N      0.993050000000     0.389380000000     0.490840000000    -0.197494   
N36      N      0.010700000000     0.097740000000     0.559150000000    -0.032133   
Ni1      Ni     0.996290000000     0.990970000000     0.466860000000     1.01102    
Ni2      Ni     0.993580000000     0.991870000000     0.528280000000     1.04028    
Ni3      Ni     0.962840000000     0.491540000000     0.493000000000     1.01757    
Ni4      Ni     0.024440000000     0.491120000000     0.493850000000     1.00309    
Ni5      Ni     0.495100000000     0.964540000000     0.497550000000     1.02132    
Ni6      Ni     0.494330000000     0.026180000000     0.497580000000     1.00165    
Ni7      Ni     0.521310000000     0.002950000000     0.997310000000     1.00202    
Ni8      Ni     0.459770000000     0.001320000000     0.997510000000     1.03057    
Ni9      Ni     0.000680000000     0.466480000000     0.993910000000     1.00241    
Ni10     Ni     0.999710000000     0.528110000000     0.992570000000     1.02045    
Ni11     Ni     0.501270000000     0.502830000000     0.023610000000     1.01416    
Ni12     Ni     0.499120000000     0.501700000000     0.962130000000     1.02874    
O1       O      0.998370000000     0.040690000000     0.468280000000    -0.44709    
O2       O      0.994010000000     0.941340000000     0.469520000000    -0.442356   
O3       O      0.946680000000     0.992940000000     0.466640000000    -0.428581   
O4       O      0.045740000000     0.988860000000     0.471090000000    -0.449501   
O5       O      0.043280000000     0.990630000000     0.528470000000    -0.42174    
O6       O      0.944040000000     0.992970000000     0.524050000000    -0.44252    
O7       O      0.992430000000     0.942220000000     0.526940000000    -0.424057   
O8       O      0.994940000000     0.041440000000     0.525640000000    -0.42867    
O9       O      0.964510000000     0.441830000000     0.492090000000    -0.442871   
O10      O      0.965150000000     0.541190000000     0.493950000000    -0.446839   
O11      O      0.965510000000     0.492560000000     0.443370000000    -0.449361   
O12      O      0.964230000000     0.490500000000     0.542680000000    -0.427983   
O13      O      0.021690000000     0.489230000000     0.543440000000    -0.449481   
O14      O      0.023130000000     0.492890000000     0.444200000000    -0.449011   
O15      O      0.022750000000     0.540810000000     0.495650000000    -0.448204   
O16      O      0.022140000000     0.441490000000     0.491970000000    -0.447976   
O17      O      0.544700000000     0.967190000000     0.496110000000    -0.447637   
O18      O      0.445470000000     0.965880000000     0.498950000000    -0.443292   
O19      O      0.493510000000     0.966580000000     0.447970000000    -0.429576   
O20      O      0.496500000000     0.966520000000     0.547170000000    -0.449774   
O21      O      0.496350000000     0.024180000000     0.547190000000    -0.448981   
O22      O      0.492270000000     0.024090000000     0.447930000000    -0.449222   
O23      O      0.444710000000     0.023520000000     0.499610000000    -0.44742    
O24      O      0.543990000000     0.024830000000     0.495590000000    -0.448515   
O25      O      0.519510000000     0.003250000000     0.046970000000    -0.449135   
O26      O      0.519080000000     0.002610000000     0.947670000000    -0.449366   
O27      O      0.517970000000     0.052520000000     0.996860000000    -0.450018   
O28      O      0.520620000000     0.953240000000     0.997710000000    -0.449043   
O29      O      0.463020000000     0.951750000000     0.997980000000    -0.447187   
O30      O      0.460530000000     0.051030000000     0.996970000000    -0.425941   
O31      O      0.461670000000     0.000730000000     0.947850000000    -0.424803   
O32      O      0.461900000000     0.001930000000     0.047150000000    -0.447313   
O33      O      0.001310000000     0.469620000000     0.043520000000    -0.449324   
O34      O      0.000100000000     0.467430000000     0.944180000000    -0.448423   
O35      O      0.050280000000     0.469240000000     0.993320000000    -0.448396   
O36      O      0.950970000000     0.467730000000     0.994470000000    -0.448795   
O37      O      0.950150000000     0.525360000000     0.993510000000    -0.448423   
O38      O      0.049380000000     0.526860000000     0.991740000000    -0.443358   
O39      O      0.998760000000     0.525050000000     0.942980000000    -0.449655   
O40      O      0.000720000000     0.527130000000     0.042230000000    -0.428866   
O41      O      0.499540000000     0.453180000000     0.022640000000    -0.447739   
O42      O      0.502910000000     0.552390000000     0.020610000000    -0.444092   
O43      O      0.451580000000     0.504530000000     0.023230000000    -0.428475   
O44      O      0.550800000000     0.501170000000     0.019890000000    -0.449788   
O45      O      0.548790000000     0.500230000000     0.962480000000    -0.42589    
O46      O      0.449640000000     0.503290000000     0.965790000000    -0.448351   
O47      O      0.500520000000     0.551400000000     0.963230000000    -0.424054   
O48      O      0.497730000000     0.452110000000     0.965060000000    -0.447561   
O49      O      0.610960000000     0.488080000000     0.899850000000    -0.0994006  
O50      O      0.589950000000     0.538180000000     0.920620000000    -0.0789421  
O51      O      0.388080000000     0.511600000000     0.087080000000    -0.103825   
O52      O      0.414910000000     0.553210000000     0.056550000000    -0.0941753  
O53      O      0.535240000000     0.592840000000     0.919010000000    -0.0780625  
O54      O      0.483900000000     0.614950000000     0.903000000000    -0.0988389  
O55      O      0.420860000000     0.090710000000     0.955460000000    -0.0792244  
O56      O      0.397890000000     0.114460000000     0.003320000000    -0.099403   
O57      O      0.403370000000     0.979230000000     0.884450000000    -0.0996587  
O58      O      0.416640000000     0.032210000000     0.904460000000    -0.0780914  
O59      O      0.487580000000     0.904430000000     0.383060000000    -0.103977   
O60      O      0.445260000000     0.932680000000     0.411230000000    -0.0958749  
O61      O      0.901610000000     0.491930000000     0.607270000000    -0.103547   
O62      O      0.926810000000     0.446500000000     0.581100000000    -0.0949212  
O63      O      0.048370000000     0.561290000000     0.079500000000    -0.0951659  
O64      O      0.005760000000     0.590560000000     0.106130000000    -0.103791   
O65      O      0.106110000000     0.994550000000     0.592680000000    -0.0915462  
O66      O      0.080960000000     0.948120000000     0.568280000000    -0.0826095  
O67      O      0.884370000000     0.991120000000     0.401870000000    -0.103948   
O68      O      0.908650000000     0.947000000000     0.430970000000    -0.0930921  
O69      O      0.992990000000     0.878090000000     0.589660000000    -0.0934739  
O70      O      0.947790000000     0.903620000000     0.563430000000    -0.0882076  
O71      O      0.994190000000     0.107300000000     0.586980000000    -0.0989864  
O72      O      0.039330000000     0.080160000000     0.562310000000    -0.0837205  


