data_structure

_audit_creation_method RASPA-1.0
_audit_creation_date 2023-6-5
_audit_author_name 'Poobodin Mano'

_cell_length_a    62.9073
_cell_length_b    62.8566
_cell_length_c    38.0578
_cell_angle_alpha 89.9433
_cell_angle_beta  90.0564
_cell_angle_gamma 119.888
_cell_volume      130471

_symmetry_cell_setting          triclinic
_symmetry_space_group_name_Hall 'P 1'
_symmetry_space_group_name_H-M  'P 1'
_symmetry_Int_Tables_number     1

_symmetry_equiv_pos_as_xyz 'x,y,z'

loop_
_atom_site_label
_atom_site_type_symbol
_atom_site_fract_x
_atom_site_fract_y
_atom_site_fract_z
_atom_site_charge
C1       C      0.874760000000     0.688120000000     0.590810000000     0.434966   
C2       C      0.853720000000     0.680860000000     0.721620000000     0.434915   
C3       C      0.818750000000     0.660820000000     0.639750000000     0.434099   
C4       C      0.909720000000     0.708160000000     0.672680000000     0.434329   
C5       C      0.186950000000     0.843470000000     0.888050000000     0.434063   
C6       C      0.208250000000     0.857480000000     0.757290000000     0.434658   
C7       C      0.243040000000     0.872150000000     0.839420000000     0.433957   
C8       C      0.152170000000     0.828780000000     0.805910000000     0.434065   
C9       C      0.541640000000     0.019010000000     0.925390000000     0.434762   
C10      C      0.519720000000     0.012490000000     0.055860000000     0.434218   
C11      C      0.485250000000     0.992280000000     0.973560000000     0.434105   
C12      C      0.576010000000     0.039230000000     0.007720000000     0.433956   
C13      C      0.187090000000     0.347730000000     0.387920000000     0.434302   
C14      C      0.208260000000     0.354970000000     0.257140000000     0.434769   
C15      C      0.243140000000     0.375040000000     0.339110000000     0.433994   
C16      C      0.152220000000     0.327660000000     0.305900000000     0.433699   
C17      C      0.874490000000     0.190450000000     0.091450000000     0.434769   
C18      C      0.853730000000     0.176490000000     0.222350000000     0.434857   
C19      C      0.818570000000     0.161400000000     0.140620000000     0.434082   
C20      C      0.909620000000     0.205500000000     0.173190000000     0.434195   
C21      C      0.541520000000     0.524920000000     0.424310000000     0.434402   
C22      C      0.520220000000     0.510850000000     0.555080000000     0.434549   
C23      C      0.485440000000     0.496050000000     0.472920000000     0.433912   
C24      C      0.576310000000     0.539730000000     0.506460000000     0.434045   
C25      C      0.190670000000     0.354820000000     0.757070000000     0.434871   
C26      C      0.204600000000     0.347820000000     0.887990000000     0.43472    
C27      C      0.219330000000     0.327470000000     0.806210000000     0.434808   
C28      C      0.175930000000     0.375180000000     0.838750000000     0.434818   
C29      C      0.367780000000     0.177740000000     0.721810000000     0.434889   
C30      C      0.360810000000     0.191440000000     0.590820000000     0.434974   
C31      C      0.340310000000     0.206210000000     0.672300000000     0.434823   
C32      C      0.388290000000     0.162990000000     0.640340000000     0.435103   
C33      C      0.027400000000     0.524800000000     0.924800000000     0.433898   
C34      C      0.034760000000     0.510820000000     0.055610000000     0.43434    
C35      C      0.054830000000     0.496080000000     0.973600000000     0.434759   
C36      C      0.007310000000     0.539540000000     0.006800000000     0.420735   
C37      C      0.694640000000     0.858860000000     0.257530000000     0.435108   
C38      C      0.702110000000     0.844950000000     0.388320000000     0.434784   
C39      C      0.721940000000     0.829990000000     0.306280000000     0.435068   
C40      C      0.674830000000     0.873870000000     0.339540000000     0.434778   
C41      C      0.871190000000     0.681140000000     0.221720000000     0.435141   
C42      C      0.857400000000     0.687910000000     0.090710000000     0.435148   
C43      C      0.842590000000     0.708430000000     0.172140000000     0.435276   
C44      C      0.886010000000     0.660620000000     0.140300000000     0.43517    
C45      C      0.539770000000     0.015770000000     0.555370000000     0.434721   
C46      C      0.524380000000     0.021990000000     0.424740000000     0.434447   
C47      C      0.510110000000     0.042450000000     0.506800000000     0.434952   
C48      C      0.553940000000     0.995300000000     0.473430000000     0.43493    
C49      C      0.360640000000     0.173810000000     0.090880000000     0.435018   
C50      C      0.367700000000     0.194670000000     0.221740000000     0.435199   
C51      C      0.387880000000     0.229760000000     0.140020000000     0.434689   
C52      C      0.340450000000     0.138700000000     0.172600000000     0.434306   
C53      C      0.537790000000     0.528210000000     0.055090000000     0.434588   
C54      C      0.523710000000     0.507020000000     0.924290000000     0.434801   
C55      C      0.508890000000     0.472140000000     0.006360000000     0.434222   
C56      C      0.552610000000     0.563080000000     0.973010000000     0.434051   
C57      C      0.204780000000     0.861370000000     0.388070000000     0.434403   
C58      C      0.190690000000     0.840190000000     0.257270000000     0.434432   
C59      C      0.175920000000     0.805310000000     0.339340000000     0.434414   
C60      C      0.219550000000     0.896260000000     0.306010000000     0.434446   
C61      C      0.027800000000     0.507190000000     0.424780000000     0.433744   
C62      C      0.034720000000     0.528140000000     0.555630000000     0.434377   
C63      C      0.054980000000     0.563180000000     0.473820000000     0.434055   
C64      C      0.007560000000     0.472160000000     0.506660000000     0.420525   
C65      C      0.871560000000     0.194860000000     0.722310000000     0.434991   
C66      C      0.857740000000     0.173760000000     0.591500000000     0.435225   
C67      C      0.842960000000     0.138850000000     0.673470000000     0.434431   
C68      C      0.886370000000     0.229830000000     0.640410000000     0.434524   
C69      C      0.701360000000     0.861200000000     0.888400000000     0.434729   
C70      C      0.694690000000     0.840630000000     0.757440000000     0.434553   
C71      C      0.674140000000     0.805330000000     0.839010000000     0.434296   
C72      C      0.721890000000     0.896450000000     0.806860000000     0.434646   
C73      C      0.806770000000     0.102560000000     0.691240000000     0.0748145  
C74      C      0.795060000000     0.078720000000     0.704650000000    -0.0946869  
C75      C      0.808510000000     0.066890000000     0.711380000000     0.0503628  
C76      C      0.833590000000     0.079290000000     0.703410000000    -0.0943705  
C77      C      0.844730000000     0.103150000000     0.689960000000     0.0747506  
C78      C      0.796460000000     0.041920000000     0.727170000000    -0.00708312 
C79      C      0.778910000000     0.035610000000     0.753930000000    -0.0353969  
C80      C      0.767250000000     0.012080000000     0.768480000000    -0.0353603  
C81      C      0.772880000000     0.994280000000     0.756710000000    -0.00726556 
C82      C      0.790660000000     0.000650000000     0.730290000000    -0.0352037  
C83      C      0.802310000000     0.024200000000     0.715670000000    -0.0353509  
C84      C      0.759770000000     0.968980000000     0.771290000000     0.050475   
C85      C      0.734460000000     0.957130000000     0.777270000000    -0.0948061  
C86      C      0.722180000000     0.933050000000     0.789770000000     0.074711   
C87      C      0.759430000000     0.932220000000     0.791390000000     0.0748313  
C88      C      0.772290000000     0.956290000000     0.778770000000    -0.0946222  
C89      C      0.884650000000     0.265650000000     0.624510000000     0.0748199  
C90      C      0.895880000000     0.289690000000     0.611770000000    -0.0945892  
C91      C      0.921040000000     0.302270000000     0.604390000000     0.0508375  
C92      C      0.934440000000     0.290310000000     0.610590000000    -0.094588   
C93      C      0.922630000000     0.266260000000     0.623210000000     0.0750947  
C94      C      0.933240000000     0.327540000000     0.589720000000    -0.00765459 
C95      C      0.921880000000     0.333970000000     0.563200000000    -0.0341659  
C96      C      0.933770000000     0.357510000000     0.548580000000    -0.0369077  
C97      C      0.957270000000     0.375180000000     0.560170000000    -0.00268527 
C98      C      0.968470000000     0.368820000000     0.587010000000    -0.0365903  
C99      C      0.956620000000     0.345290000000     0.601570000000    -0.0341346  
C100     C      0.970160000000     0.400160000000     0.544410000000     0.0420105  
C101     C      0.957490000000     0.412620000000     0.536330000000    -0.0886353  
C102     C      0.970170000000     0.436490000000     0.522930000000     0.0722269  
C103     C      0.007500000000     0.435810000000     0.524470000000     0.0553405  
C104     C      0.995400000000     0.411960000000     0.537830000000    -0.0721938  
C105     C      0.055130000000     0.599660000000     0.456480000000     0.0743276  
C106     C      0.067330000000     0.623700000000     0.443810000000    -0.0948891  
C107     C      0.092640000000     0.635590000000     0.437720000000     0.0500619  
C108     C      0.105210000000     0.622970000000     0.445280000000    -0.0945631  
C109     C      0.092440000000     0.598940000000     0.458070000000     0.0744044  
C110     C      0.105670000000     0.660830000000     0.422960000000    -0.0073963  
C111     C      0.100050000000     0.678660000000     0.434640000000    -0.0357382  
C112     C      0.111700000000     0.702160000000     0.419990000000    -0.0356341  
C113     C      0.129240000000     0.708420000000     0.393230000000    -0.00731912 
C114     C      0.135070000000     0.690670000000     0.381790000000    -0.0355902  
C115     C      0.123430000000     0.667150000000     0.396510000000    -0.0355445  
C116     C      0.141330000000     0.733380000000     0.377400000000     0.0500488  
C117     C      0.127940000000     0.745280000000     0.370680000000    -0.0948664  
C118     C      0.139690000000     0.769100000000     0.357220000000     0.0744814  
C119     C      0.177590000000     0.769570000000     0.355870000000     0.0745018  
C120     C      0.166400000000     0.745720000000     0.369370000000    -0.0944262  
C121     C      0.636590000000     0.769600000000     0.854540000000     0.0746452  
C122     C      0.623720000000     0.745550000000     0.867230000000    -0.094616   
C123     C      0.636220000000     0.732850000000     0.874770000000     0.0502807  
C124     C      0.661530000000     0.744670000000     0.868750000000    -0.0947733  
C125     C      0.673820000000     0.768740000000     0.856190000000     0.0747093  
C126     C      0.623100000000     0.707580000000     0.889460000000    -0.0072534  
C127     C      0.605330000000     0.701280000000     0.915880000000    -0.0354307  
C128     C      0.593630000000     0.677750000000     0.930560000000    -0.0354639  
C129     C      0.599420000000     0.659970000000     0.919110000000    -0.00719138 
C130     C      0.616960000000     0.666210000000     0.892360000000    -0.0354653  
C131     C      0.628670000000     0.689720000000     0.877750000000    -0.0355257  
C132     C      0.587290000000     0.635010000000     0.934930000000     0.0501409  
C133     C      0.562220000000     0.622700000000     0.942950000000    -0.0942929  
C134     C      0.551000000000     0.598850000000     0.956460000000     0.0745213  
C135     C      0.588870000000     0.599260000000     0.955140000000     0.0746614  
C136     C      0.600650000000     0.623080000000     0.941670000000    -0.0946916  
C137     C      0.340310000000     0.102180000000     0.189730000000     0.0746509  
C138     C      0.328110000000     0.078120000000     0.202280000000    -0.094699   
C139     C      0.302810000000     0.066210000000     0.208390000000     0.0502219  
C140     C      0.290230000000     0.078840000000     0.200970000000    -0.0945663  
C141     C      0.303000000000     0.102900000000     0.188290000000     0.0744573  
C142     C      0.289780000000     0.040920000000     0.223020000000    -0.0072668  
C143     C      0.295420000000     0.023140000000     0.211200000000    -0.0355426  
C144     C      0.283770000000     0.999590000000     0.225720000000    -0.0355642  
C145     C      0.266220000000     0.993260000000     0.252500000000    -0.00716739 
C146     C      0.260390000000     0.010970000000     0.264080000000    -0.0355142  
C147     C      0.272020000000     0.034530000000     0.249490000000    -0.035491   
C148     C      0.254130000000     0.968260000000     0.268190000000     0.0500856  
C149     C      0.267530000000     0.956350000000     0.274800000000    -0.094629   
C150     C      0.255770000000     0.932490000000     0.288170000000     0.074663   
C151     C      0.217870000000     0.932020000000     0.289620000000     0.0743617  
C152     C      0.229060000000     0.955900000000     0.276210000000    -0.0943703  
C153     C      0.472640000000     0.435930000000     0.024210000000     0.074594   
C154     C      0.460870000000     0.412080000000     0.037590000000    -0.0946032  
C155     C      0.474240000000     0.400150000000     0.044220000000     0.0502224  
C156     C      0.499310000000     0.412480000000     0.036210000000    -0.0943778  
C157     C      0.510520000000     0.436350000000     0.022790000000     0.0746067  
C158     C      0.462130000000     0.375150000000     0.059940000000    -0.00716514 
C159     C      0.444590000000     0.368840000000     0.086710000000    -0.0354021  
C160     C      0.432930000000     0.345310000000     0.101260000000    -0.0355255  
C161     C      0.438550000000     0.327500000000     0.089470000000    -0.00724266 
C162     C      0.456300000000     0.333870000000     0.063000000000    -0.0354088  
C163     C      0.467950000000     0.357420000000     0.048390000000    -0.0354171  
C164     C      0.425520000000     0.302230000000     0.104140000000     0.0502837  
C165     C      0.400220000000     0.290330000000     0.110260000000    -0.0947707  
C166     C      0.388020000000     0.266270000000     0.122850000000     0.074736   
C167     C      0.425330000000     0.265550000000     0.124300000000     0.0745279  
C168     C      0.438100000000     0.289600000000     0.111590000000    -0.0945076  
C169     C      0.711010000000     0.832800000000     0.705720000000     0.0749408  
C170     C      0.711630000000     0.831030000000     0.669180000000    -0.0952354  
C171     C      0.694770000000     0.833790000000     0.648510000000     0.0509072  
C172     C      0.676830000000     0.837120000000     0.665130000000    -0.0954292  
C173     C      0.676430000000     0.838320000000     0.701730000000     0.0749463  
C174     C      0.696680000000     0.834540000000     0.609750000000    -0.00771243 
C175     C      0.697850000000     0.815850000000     0.591160000000    -0.0357322  
C176     C      0.699690000000     0.816820000000     0.554480000000    -0.0356177  
C177     C      0.700970000000     0.836770000000     0.535970000000    -0.00778233 
C178     C      0.700070000000     0.855560000000     0.554650000000    -0.0353744  
C179     C      0.697740000000     0.854350000000     0.591170000000    -0.0354881  
C180     C      0.702700000000     0.837950000000     0.497200000000     0.0509507  
C181     C      0.685680000000     0.818410000000     0.476660000000    -0.0952225  
C182     C      0.686090000000     0.820830000000     0.440130000000     0.0749705  
C183     C      0.720770000000     0.860790000000     0.443840000000     0.0750206  
C184     C      0.720590000000     0.859160000000     0.480430000000    -0.0954534  
C185     C      0.685200000000     0.869300000000     0.940060000000     0.0748907  
C186     C      0.684720000000     0.871320000000     0.976570000000    -0.0951657  
C187     C      0.701650000000     0.868700000000     0.997260000000     0.0508229  
C188     C      0.719510000000     0.865220000000     0.980670000000    -0.095469   
C189     C      0.719760000000     0.863760000000     0.944090000000     0.0750706  
C190     C      0.699910000000     0.868250000000     0.036030000000    -0.00761369 
C191     C      0.698840000000     0.887080000000     0.054350000000    -0.0357068  
C192     C      0.697100000000     0.886360000000     0.091040000000    -0.0356409  
C193     C      0.695820000000     0.866510000000     0.109820000000    -0.00777956 
C194     C      0.696650000000     0.847580000000     0.091410000000    -0.0354199  
C195     C      0.698880000000     0.848550000000     0.054890000000    -0.0354506  
C196     C      0.694090000000     0.865530000000     0.148600000000     0.0509662  
C197     C      0.676120000000     0.844430000000     0.165480000000    -0.0955328  
C198     C      0.675930000000     0.842930000000     0.202080000000     0.0749282  
C199     C      0.710740000000     0.882820000000     0.205570000000     0.0749532  
C200     C      0.711160000000     0.885100000000     0.169020000000    -0.0951892  
C201     C      0.806350000000     0.708760000000     0.189150000000     0.0748969  
C202     C      0.794570000000     0.721060000000     0.201700000000    -0.0948596  
C203     C      0.808000000000     0.746370000000     0.207780000000     0.0505511  
C204     C      0.833140000000     0.758880000000     0.200290000000    -0.0946142  
C205     C      0.844340000000     0.746010000000     0.187620000000     0.0749342  
C206     C      0.795870000000     0.759490000000     0.222520000000    -0.00712717 
C207     C      0.772490000000     0.753970000000     0.210760000000    -0.035549   
C208     C      0.760690000000     0.765670000000     0.225450000000    -0.0352833  
C209     C      0.771950000000     0.783120000000     0.252320000000    -0.00718695 
C210     C      0.795450000000     0.788840000000     0.263830000000    -0.0352788  
C211     C      0.807290000000     0.777160000000     0.249070000000    -0.0353858  
C212     C      0.759130000000     0.795250000000     0.268190000000     0.0504686  
C213     C      0.733910000000     0.781880000000     0.274930000000    -0.0949184  
C214     C      0.721890000000     0.793680000000     0.288420000000     0.0750137  
C215     C      0.759240000000     0.831570000000     0.289760000000     0.0748085  
C216     C      0.771850000000     0.820330000000     0.276230000000    -0.094413   
C217     C      0.590210000000     0.995260000000     0.455720000000     0.0749064  
C218     C      0.602060000000     0.983070000000     0.443050000000    -0.0948381  
C219     C      0.588760000000     0.957710000000     0.437260000000     0.0503667  
C220     C      0.563680000000     0.945070000000     0.445120000000    -0.0945988  
C221     C      0.552410000000     0.957840000000     0.457910000000     0.0746589  
C222     C      0.600960000000     0.944660000000     0.422530000000    -0.00720595 
C223     C      0.624420000000     0.950350000000     0.434140000000    -0.0356029  
C224     C      0.636230000000     0.938620000000     0.419570000000    -0.0353317  
C225     C      0.624890000000     0.920960000000     0.392960000000    -0.00727484 
C226     C      0.601320000000     0.915100000000     0.381570000000    -0.0353851  
C227     C      0.589480000000     0.926810000000     0.396210000000    -0.0355211  
C228     C      0.637680000000     0.908760000000     0.377250000000     0.0503559  
C229     C      0.662890000000     0.922100000000     0.370400000000    -0.0948598  
C230     C      0.674900000000     0.910240000000     0.357070000000     0.0749581  
C231     C      0.637550000000     0.872340000000     0.356100000000     0.0746067  
C232     C      0.624960000000     0.883630000000     0.369490000000    -0.094499   
C233     C      0.018510000000     0.536120000000     0.607330000000     0.0743853  
C234     C      0.017980000000     0.538040000000     0.643860000000    -0.0955339  
C235     C      0.034920000000     0.535420000000     0.664530000000     0.0504319  
C236     C      0.052850000000     0.532070000000     0.647890000000    -0.0955246  
C237     C      0.053150000000     0.530710000000     0.611310000000     0.0745377  
C238     C      0.033100000000     0.534820000000     0.703300000000    -0.00781336 
C239     C      0.031870000000     0.553520000000     0.721750000000    -0.0363267  
C240     C      0.030050000000     0.552660000000     0.758440000000    -0.035469   
C241     C      0.028850000000     0.532790000000     0.777080000000    -0.00950852 
C242     C      0.029830000000     0.513990000000     0.758550000000    -0.0353898  
C243     C      0.032150000000     0.515100000000     0.722030000000    -0.0361805  
C244     C      0.027040000000     0.531670000000     0.815870000000     0.0528759  
C245     C      0.009140000000     0.510470000000     0.832630000000    -0.102104   
C246     C      0.008880000000     0.508890000000     0.869230000000     0.0693528  
C247     C      0.043480000000     0.548890000000     0.872960000000     0.0749041  
C248     C      0.043970000000     0.551260000000     0.836410000000    -0.0961915  
C249     C      0.044020000000     0.499270000000     0.373030000000     0.0749273  
C250     C      0.044540000000     0.497380000000     0.336490000000    -0.0962487  
C251     C      0.027570000000     0.499980000000     0.315870000000     0.0529148  
C252     C      0.009620000000     0.503280000000     0.332540000000    -0.10218    
C253     C      0.009330000000     0.504600000000     0.369140000000     0.069393   
C254     C      0.029370000000     0.500630000000     0.277090000000    -0.00956178 
C255     C      0.030590000000     0.481950000000     0.258560000000    -0.0354463  
C256     C      0.032360000000     0.482840000000     0.221870000000    -0.0363312  
C257     C      0.033520000000     0.502720000000     0.203300000000    -0.00784256 
C258     C      0.032560000000     0.521490000000     0.221920000000    -0.0361286  
C259     C      0.030300000000     0.520350000000     0.258440000000    -0.0353586  
C260     C      0.035260000000     0.503860000000     0.164510000000     0.0504739  
C261     C      0.018290000000     0.484300000000     0.143970000000    -0.0955685  
C262     C      0.018720000000     0.486700000000     0.107440000000     0.0743357  
C263     C      0.053340000000     0.526690000000     0.111150000000     0.0745699  
C264     C      0.053130000000     0.525080000000     0.147750000000    -0.0955586  
C265     C      0.007160000000     0.575750000000     0.024650000000     0.0555343  
C266     C      0.995030000000     0.587460000000     0.038100000000    -0.0724521  
C267     C      0.969810000000     0.573990000000     0.044790000000     0.0422843  
C268     C      0.957190000000     0.548920000000     0.036730000000    -0.0887995  
C269     C      0.969900000000     0.537770000000     0.023240000000     0.0724031  
C270     C      0.956900000000     0.586030000000     0.060620000000    -0.00280593 
C271     C      0.968080000000     0.603490000000     0.087510000000    -0.0364278  
C272     C      0.956220000000     0.615140000000     0.102130000000    -0.0342004  
C273     C      0.932850000000     0.609580000000     0.090260000000    -0.00762224 
C274     C      0.921490000000     0.591890000000     0.063710000000    -0.034172   
C275     C      0.933390000000     0.580250000000     0.049040000000    -0.0368883  
C276     C      0.920660000000     0.622690000000     0.104880000000     0.0510797  
C277     C      0.934070000000     0.648010000000     0.110930000000    -0.0948171  
C278     C      0.922270000000     0.660300000000     0.123390000000     0.0753487  
C279     C      0.884290000000     0.623040000000     0.124870000000     0.0750895  
C280     C      0.895510000000     0.610170000000     0.112290000000    -0.0947918  
C281     C      0.351700000000     0.153590000000     0.773580000000     0.0749698  
C282     C      0.351220000000     0.151160000000     0.810110000000    -0.0953876  
C283     C      0.368110000000     0.170740000000     0.830700000000     0.0509574  
C284     C      0.385940000000     0.192010000000     0.814000000000    -0.0954542  
C285     C      0.386190000000     0.193660000000     0.777420000000     0.0750429  
C286     C      0.366330000000     0.169540000000     0.869460000000    -0.00781308 
C287     C      0.365280000000     0.188250000000     0.888130000000    -0.0355223  
C288     C      0.362990000000     0.187050000000     0.924640000000    -0.0355192  
C289     C      0.362110000000     0.167320000000     0.943230000000    -0.00779789 
C290     C      0.363410000000     0.148700000000     0.924650000000    -0.0357366  
C291     C      0.365210000000     0.149650000000     0.887970000000    -0.0357635  
C292     C      0.360320000000     0.166630000000     0.981990000000     0.0508083  
C293     C      0.342370000000     0.169900000000     0.998710000000    -0.0956783  
C294     C      0.342110000000     0.171220000000     0.035300000000     0.0751117  
C295     C      0.376820000000     0.165890000000     0.039090000000     0.0747383  
C296     C      0.377310000000     0.164020000000     0.002550000000    -0.0950322  
C297     C      0.351580000000     0.202680000000     0.273510000000     0.0749012  
C298     C      0.351130000000     0.204640000000     0.310030000000    -0.095367   
C299     C      0.368150000000     0.202080000000     0.330600000000     0.0509446  
C300     C      0.386070000000     0.198760000000     0.313890000000    -0.0955489  
C301     C      0.386280000000     0.197350000000     0.277310000000     0.0750688  
C302     C      0.366410000000     0.201490000000     0.369370000000    -0.00781914 
C303     C      0.365150000000     0.220170000000     0.387850000000    -0.0357612  
C304     C      0.363380000000     0.219300000000     0.424540000000    -0.0357519  
C305     C      0.362270000000     0.199450000000     0.443140000000    -0.00783349 
C306     C      0.363290000000     0.180690000000     0.424570000000    -0.03548    
C307     C      0.365550000000     0.181810000000     0.388060000000    -0.0354723  
C308     C      0.360490000000     0.198320000000     0.481910000000     0.0509827  
C309     C      0.342630000000     0.177080000000     0.498650000000    -0.0956074  
C310     C      0.342380000000     0.175490000000     0.535240000000     0.0751219  
C311     C      0.376910000000     0.215530000000     0.538990000000     0.0749142  
C312     C      0.377390000000     0.217910000000     0.502450000000    -0.0953394  
C313     C      0.388750000000     0.126760000000     0.623490000000     0.0748723  
C314     C      0.401110000000     0.115020000000     0.611020000000    -0.094865   
C315     C      0.426390000000     0.128530000000     0.604850000000     0.0505127  
C316     C      0.438810000000     0.153710000000     0.612160000000    -0.0947093  
C317     C      0.425890000000     0.164870000000     0.624780000000     0.0747315  
C318     C      0.439560000000     0.116430000000     0.590230000000    -0.00724515 
C319     C      0.434220000000     0.093140000000     0.602260000000    -0.0354895  
C320     C      0.445960000000     0.081350000000     0.587680000000    -0.0353344  
C321     C      0.463270000000     0.092520000000     0.560620000000    -0.00721403 
C322     C      0.468820000000     0.115950000000     0.548860000000    -0.0353498  
C323     C      0.457110000000     0.127780000000     0.563520000000    -0.0354493  
C324     C      0.475390000000     0.079690000000     0.544810000000     0.050376   
C325     C      0.462090000000     0.054390000000     0.538460000000    -0.0947723  
C326     C      0.473880000000     0.042350000000     0.525020000000     0.0750833  
C327     C      0.511630000000     0.079820000000     0.522930000000     0.0746805  
C328     C      0.500400000000     0.092450000000     0.536420000000    -0.0943677  
C329     C      0.054960000000     0.459870000000     0.955700000000     0.0745661  
C330     C      0.067070000000     0.448170000000     0.942160000000    -0.0950967  
C331     C      0.092280000000     0.461640000000     0.935390000000     0.0502001  
C332     C      0.104920000000     0.486710000000     0.943480000000    -0.0945199  
C333     C      0.092230000000     0.497850000000     0.957060000000     0.0744071  
C334     C      0.105160000000     0.449610000000     0.919420000000    -0.00742614 
C335     C      0.093930000000     0.432190000000     0.892500000000    -0.0355628  
C336     C      0.105770000000     0.420560000000     0.877740000000    -0.0358018  
C337     C      0.129160000000     0.426100000000     0.889480000000    -0.00739803 
C338     C      0.140560000000     0.443760000000     0.916070000000    -0.0355207  
C339     C      0.128690000000     0.455380000000     0.930880000000    -0.0355215  
C340     C      0.141320000000     0.413030000000     0.874690000000     0.0502198  
C341     C      0.127910000000     0.387710000000     0.868560000000    -0.0950392  
C342     C      0.139700000000     0.375450000000     0.855920000000     0.0747242  
C343     C      0.177670000000     0.412720000000     0.854440000000     0.0746241  
C344     C      0.166460000000     0.425560000000     0.867190000000    -0.0946973  
C345     C      0.217530000000     0.289990000000     0.789920000000     0.0745967  
C346     C      0.228640000000     0.277250000000     0.776410000000    -0.0945307  
C347     C      0.253680000000     0.289860000000     0.768270000000     0.0502901  
C348     C      0.267160000000     0.315110000000     0.774940000000    -0.0948139  
C349     C      0.255490000000     0.327270000000     0.788410000000     0.0747888  
C350     C      0.265680000000     0.276940000000     0.752340000000    -0.00726048 
C351     C      0.259940000000     0.253420000000     0.763910000000    -0.0355215  
C352     C      0.271560000000     0.241530000000     0.749160000000    -0.0354318  
C353     C      0.289190000000     0.252900000000     0.722540000000    -0.00729567 
C354     C      0.294680000000     0.276260000000     0.710680000000    -0.0355872  
C355     C      0.283050000000     0.288130000000     0.725370000000    -0.0354256  
C356     C      0.302300000000     0.240740000000     0.707880000000     0.050356   
C357     C      0.289840000000     0.215570000000     0.700500000000    -0.0946676  
C358     C      0.302730000000     0.204380000000     0.687860000000     0.0745988  
C359     C      0.339910000000     0.242450000000     0.689230000000     0.0748539  
C360     C      0.327590000000     0.254210000000     0.701740000000    -0.0947814  
C361     C      0.517490000000     0.526690000000     0.610650000000     0.0747824  
C362     C      0.516130000000     0.525060000000     0.647240000000    -0.0953309  
C363     C      0.512880000000     0.503830000000     0.663990000000     0.0508276  
C364     C      0.510350000000     0.484280000000     0.643420000000    -0.0952329  
C365     C      0.512280000000     0.486700000000     0.606890000000     0.0749411  
C366     C      0.513500000000     0.502660000000     0.702770000000    -0.00774336 
C367     C      0.533190000000     0.521390000000     0.721440000000    -0.0354827  
C368     C      0.534330000000     0.520210000000     0.757960000000    -0.0354061  
C369     C      0.515590000000     0.500500000000     0.776580000000    -0.00780796 
C370     C      0.495740000000     0.481860000000     0.758000000000    -0.0356314  
C371     C      0.494840000000     0.482790000000     0.721310000000    -0.0357472  
C372     C      0.516740000000     0.499830000000     0.815370000000     0.050934   
C373     C      0.497210000000     0.497290000000     0.835930000000    -0.0951614  
C374     C      0.499610000000     0.499170000000     0.872480000000     0.0748539  
C375     C      0.539540000000     0.504330000000     0.868710000000     0.0750257  
C376     C      0.537930000000     0.503020000000     0.832110000000    -0.0955082  
C377     C      0.561910000000     0.536130000000     0.106900000000     0.0749645  
C378     C      0.564340000000     0.538070000000     0.143440000000    -0.0952344  
C379     C      0.544820000000     0.535590000000     0.164000000000     0.0508851  
C380     C      0.523620000000     0.532370000000     0.147250000000    -0.0955283  
C381     C      0.521990000000     0.530990000000     0.110660000000     0.0749041  
C382     C      0.546000000000     0.535000000000     0.202790000000    -0.0077683  
C383     C      0.565860000000     0.553670000000     0.221300000000    -0.0356931  
C384     C      0.566770000000     0.552820000000     0.258000000000    -0.0357204  
C385     C      0.548130000000     0.532980000000     0.276600000000    -0.00772891 
C386     C      0.528430000000     0.514210000000     0.258000000000    -0.0354816  
C387     C      0.527270000000     0.515320000000     0.221470000000    -0.0354328  
C388     C      0.548790000000     0.531850000000     0.315390000000     0.0508362  
C389     C      0.545580000000     0.510650000000     0.332170000000    -0.0953961  
C390     C      0.544250000000     0.509060000000     0.368770000000     0.0748915  
C391     C      0.549410000000     0.549030000000     0.372470000000     0.0748125  
C392     C      0.551310000000     0.551410000000     0.335920000000    -0.0950805  
C393     C      0.882340000000     0.214610000000     0.039700000000     0.0751058  
C394     C      0.884310000000     0.217080000000     0.003170000000    -0.0947384  
C395     C      0.881880000000     0.197590000000     0.982570000000     0.0509847  
C396     C      0.878660000000     0.176350000000     0.999260000000    -0.0953995  
C397     C      0.877250000000     0.174670000000     0.035850000000     0.0753524  
C398     C      0.881340000000     0.198840000000     0.943800000000    -0.00751066 
C399     C      0.900000000000     0.218790000000     0.925390000000    -0.0355291  
C400     C      0.899180000000     0.219790000000     0.888700000000    -0.035381   
C401     C      0.879400000000     0.201160000000     0.870010000000    -0.00769926 
C402     C      0.860660000000     0.181360000000     0.888510000000    -0.0352273  
C403     C      0.861720000000     0.180110000000     0.925030000000    -0.0354277  
C404     C      0.878320000000     0.201910000000     0.831240000000     0.0511658  
C405     C      0.897920000000     0.204550000000     0.810740000000    -0.0949871  
C406     C      0.895600000000     0.202730000000     0.774190000000     0.0751864  
C407     C      0.855600000000     0.197420000000     0.777840000000     0.0751945  
C408     C      0.857130000000     0.198670000000     0.814440000000    -0.095537   
C409     C      0.851000000000     0.192350000000     0.277890000000     0.0751275  
C410     C      0.849720000000     0.190780000000     0.314490000000    -0.095312   
C411     C      0.846650000000     0.169640000000     0.331280000000     0.0510297  
C412     C      0.844230000000     0.150110000000     0.310770000000    -0.0950654  
C413     C      0.846080000000     0.152470000000     0.274230000000     0.075042   
C414     C      0.847360000000     0.168550000000     0.370050000000    -0.00762729 
C415     C      0.867030000000     0.187390000000     0.388590000000    -0.0353204  
C416     C      0.868220000000     0.186340000000     0.425120000000    -0.0352154  
C417     C      0.849550000000     0.166650000000     0.443850000000    -0.00768838 
C418     C      0.829720000000     0.147890000000     0.425390000000    -0.035631   
C419     C      0.828780000000     0.148690000000     0.388690000000    -0.0356508  
C420     C      0.850730000000     0.166140000000     0.482630000000     0.0510181  
C421     C      0.871970000000     0.169510000000     0.499410000000    -0.0952711  
C422     C      0.873610000000     0.170980000000     0.536000000000     0.0751995  
C423     C      0.833610000000     0.165660000000     0.539670000000     0.0750093  
C424     C      0.831180000000     0.163630000000     0.503150000000    -0.0952326  
C425     C      0.179090000000     0.363870000000     0.439700000000     0.0747858  
C426     C      0.177160000000     0.364340000000     0.476230000000    -0.0953814  
C427     C      0.179750000000     0.347330000000     0.496810000000     0.0507661  
C428     C      0.183060000000     0.329380000000     0.480090000000    -0.0956875  
C429     C      0.184420000000     0.329150000000     0.443500000000     0.0748743  
C430     C      0.180390000000     0.349100000000     0.535590000000    -0.0078837  
C431     C      0.161740000000     0.350350000000     0.554120000000    -0.0358915  
C432     C      0.162650000000     0.352140000000     0.590810000000    -0.0358536  
C433     C      0.182510000000     0.353290000000     0.609370000000    -0.00788465 
C434     C      0.201240000000     0.352280000000     0.590750000000    -0.0354918  
C435     C      0.200090000000     0.350000000000     0.554240000000    -0.0355215  
C436     C      0.183680000000     0.355090000000     0.648150000000     0.050763   
C437     C      0.164140000000     0.338160000000     0.668740000000    -0.0953056  
C438     C      0.166550000000     0.338660000000     0.705280000000     0.0746116  
C439     C      0.206530000000     0.373270000000     0.701450000000     0.0749058  
C440     C      0.204900000000     0.372990000000     0.664860000000    -0.0954787  
C441     C      0.216250000000     0.338820000000     0.205360000000     0.0748611  
C442     C      0.218170000000     0.338350000000     0.168820000000    -0.0953159  
C443     C      0.215570000000     0.355360000000     0.148240000000     0.0508599  
C444     C      0.212270000000     0.373300000000     0.164960000000    -0.0955441  
C445     C      0.210910000000     0.373540000000     0.201560000000     0.0748532  
C446     C      0.214920000000     0.353580000000     0.109470000000    -0.00782905 
C447     C      0.195220000000     0.352670000000     0.090830000000    -0.0355514  
C448     C      0.194060000000     0.350380000000     0.054310000000    -0.0355561  
C449     C      0.212790000000     0.349370000000     0.035680000000    -0.00771711 
C450     C      0.232650000000     0.350520000000     0.054240000000    -0.0357783  
C451     C      0.233570000000     0.352320000000     0.090930000000    -0.0357735  
C452     C      0.211610000000     0.347560000000     0.996910000000     0.0506872  
C453     C      0.190380000000     0.329660000000     0.980210000000    -0.0955706  
C454     C      0.188750000000     0.329380000000     0.943620000000     0.0748937  
C455     C      0.228730000000     0.363980000000     0.939770000000     0.0747574  
C456     C      0.231150000000     0.364490000000     0.976310000000    -0.0951717  
C457     C      0.116570000000     0.290250000000     0.289570000000     0.0739951  
C458     C      0.092690000000     0.277550000000     0.276270000000    -0.0940633  
C459     C      0.080190000000     0.290190000000     0.268320000000     0.0491232  
C460     C      0.092000000000     0.315470000000     0.274860000000    -0.0943331  
C461     C      0.115870000000     0.327590000000     0.288120000000     0.0741562  
C462     C      0.055140000000     0.277250000000     0.252780000000    -0.00596852 
C463     C      0.037600000000     0.253670000000     0.264370000000    -0.0379887  
C464     C      0.014020000000     0.241690000000     0.249900000000    -0.0325582  
C465     C      0.007410000000     0.253020000000     0.223550000000    -0.0172291  
C466     C      0.025010000000     0.276480000000     0.211750000000    -0.0325679  
C467     C      0.048580000000     0.288430000000     0.226140000000    -0.0378342  
C468     C      0.982110000000     0.240660000000     0.208980000000     0.0601127  
C469     C      0.969680000000     0.215480000000     0.201560000000    -0.0971401  
C470     C      0.945620000000     0.204090000000     0.188890000000     0.0763456  
C471     C      0.945920000000     0.241940000000     0.190350000000     0.0766813  
C472     C      0.969980000000     0.253910000000     0.202890000000    -0.097437   
C473     C      0.278900000000     0.412490000000     0.355000000000     0.0744497  
C474     C      0.302920000000     0.425250000000     0.367760000000    -0.0944149  
C475     C      0.315530000000     0.412640000000     0.375230000000     0.0500252  
C476     C      0.303610000000     0.387320000000     0.369090000000    -0.0944622  
C477     C      0.279580000000     0.375130000000     0.356450000000     0.0744273  
C478     C      0.340810000000     0.425670000000     0.389890000000    -0.00713655 
C479     C      0.347240000000     0.443520000000     0.416260000000    -0.0355068  
C480     C      0.370790000000     0.455170000000     0.430830000000    -0.0354217  
C481     C      0.388470000000     0.449280000000     0.419340000000    -0.00711444 
C482     C      0.382100000000     0.431640000000     0.392670000000    -0.0354654  
C483     C      0.358560000000     0.419970000000     0.378160000000    -0.0356009  
C484     C      0.413480000000     0.461400000000     0.435020000000     0.0499526  
C485     C      0.425840000000     0.486500000000     0.443010000000    -0.0940753  
C486     C      0.449700000000     0.497710000000     0.456420000000     0.0742626  
C487     C      0.449240000000     0.459790000000     0.455030000000     0.0745925  
C488     C      0.425400000000     0.448010000000     0.441660000000    -0.0945266  
C489     C      0.549810000000     0.002480000000     0.874210000000     0.0747113  
C490     C      0.552580000000     0.002170000000     0.837840000000    -0.0942458  
C491     C      0.551360000000     0.019800000000     0.816660000000     0.0499854  
C492     C      0.548290000000     0.038030000000     0.833150000000    -0.0942129  
C493     C      0.545900000000     0.037970000000     0.869630000000     0.0748297  
C494     C      0.552250000000     0.018620000000     0.777590000000    -0.00681412 
C495     C      0.541100000000     0.995850000000     0.760160000000    -0.0352953  
C496     C      0.540610000000     0.994700000000     0.723480000000    -0.0353992  
C497     C      0.550990000000     0.016280000000     0.703180000000    -0.00687054 
C498     C      0.562590000000     0.039040000000     0.720620000000    -0.0351608  
C499     C      0.563340000000     0.040190000000     0.757290000000    -0.0353903  
C500     C      0.548850000000     0.015100000000     0.664120000000     0.0500631  
C501     C      0.527570000000     0.996890000000     0.647660000000    -0.0941312  
C502     C      0.525180000000     0.996920000000     0.611180000000     0.0746599  
C503     C      0.564470000000     0.032360000000     0.606540000000     0.0747655  
C504     C      0.567600000000     0.032690000000     0.642920000000    -0.094313   
C505     C      0.539700000000     0.040210000000     0.368840000000     0.0750074  
C506     C      0.537840000000     0.039690000000     0.332270000000    -0.0955354  
C507     C      0.516610000000     0.021540000000     0.315900000000     0.0508673  
C508     C      0.497270000000     0.004610000000     0.336800000000    -0.0951373  
C509     C      0.499920000000     0.005370000000     0.373320000000     0.0747997  
C510     C      0.515280000000     0.019440000000     0.277150000000    -0.00774325 
C511     C      0.495350000000     0.018150000000     0.258590000000    -0.03575    
C512     C      0.494340000000     0.016130000000     0.221910000000    -0.0357864  
C513     C      0.512950000000     0.014780000000     0.203420000000    -0.00772265 
C514     C      0.532710000000     0.015810000000     0.222070000000    -0.0355015  
C515     C      0.533970000000     0.018330000000     0.258560000000    -0.0355187  
C516     C      0.512220000000     0.012740000000     0.164660000000     0.0508693  
C517     C      0.509800000000     0.029720000000     0.143770000000    -0.0951287  
C518     C      0.511750000000     0.029030000000     0.107260000000     0.0747126  
C519     C      0.516740000000     0.994120000000     0.111710000000     0.0749117  
C520     C      0.515350000000     0.994580000000     0.148280000000    -0.0955462  
C521     C      0.611730000000     0.076590000000     0.023930000000     0.0744605  
C522     C      0.635600000000     0.089260000000     0.037280000000    -0.0942176  
C523     C      0.647980000000     0.076550000000     0.045570000000     0.0500809  
C524     C      0.636040000000     0.051230000000     0.039360000000    -0.0944705  
C525     C      0.612180000000     0.039140000000     0.026050000000     0.0746049  
C526     C      0.673040000000     0.089500000000     0.061080000000    -0.00713481 
C527     C      0.690630000000     0.113000000000     0.049290000000    -0.0353846  
C528     C      0.714210000000     0.125010000000     0.063760000000    -0.0354683  
C529     C      0.720770000000     0.113780000000     0.090310000000    -0.00706088 
C530     C      0.703140000000     0.090380000000     0.102290000000    -0.0356392  
C531     C      0.679560000000     0.078410000000     0.087900000000    -0.0353514  
C532     C      0.746080000000     0.126170000000     0.104880000000     0.0501024  
C533     C      0.758520000000     0.151370000000     0.112140000000    -0.0942585  
C534     C      0.782580000000     0.162790000000     0.124800000000     0.0744188  
C535     C      0.782260000000     0.124930000000     0.123630000000     0.0746295  
C536     C      0.758190000000     0.112930000000     0.111120000000    -0.0945198  
C537     C      0.216270000000     0.881640000000     0.705480000000     0.0748009  
C538     C      0.218210000000     0.884060000000     0.668940000000    -0.0952878  
C539     C      0.215610000000     0.864480000000     0.648380000000     0.0508697  
C540     C      0.212290000000     0.843220000000     0.665120000000    -0.0955771  
C541     C      0.210920000000     0.841600000000     0.701720000000     0.0749544  
C542     C      0.214990000000     0.865660000000     0.609590000000    -0.00786036 
C543     C      0.233660000000     0.885520000000     0.591060000000    -0.035702   
C544     C      0.232770000000     0.886460000000     0.554370000000    -0.0357989  
C545     C      0.212900000000     0.867840000000     0.535790000000    -0.00774851 
C546     C      0.194150000000     0.848130000000     0.554400000000    -0.0355967  
C547     C      0.195290000000     0.846950000000     0.590920000000    -0.035459   
C548     C      0.211750000000     0.868530000000     0.497000000000     0.0507256  
C549     C      0.231290000000     0.871080000000     0.476430000000    -0.0950471  
C550     C      0.228890000000     0.869220000000     0.439880000000     0.0746984  
C551     C      0.188940000000     0.864030000000     0.443670000000     0.074772   
C552     C      0.190550000000     0.865330000000     0.480270000000    -0.0954857  
C553     C      0.178980000000     0.819350000000     0.939900000000     0.0746989  
C554     C      0.177090000000     0.816970000000     0.976450000000    -0.0952943  
C555     C      0.179680000000     0.836560000000     0.996970000000     0.0506237  
C556     C      0.182960000000     0.857790000000     0.980190000000    -0.0955124  
C557     C      0.184290000000     0.859380000000     0.943590000000     0.0747148  
C558     C      0.180340000000     0.835440000000     0.035760000000    -0.00773178 
C559     C      0.161680000000     0.815610000000     0.054370000000    -0.0359369  
C560     C      0.162600000000     0.814750000000     0.091070000000    -0.0358226  
C561     C      0.182470000000     0.833410000000     0.109580000000    -0.0078684  
C562     C      0.201220000000     0.853080000000     0.090890000000    -0.0355479  
C563     C      0.200050000000     0.854190000000     0.054360000000    -0.0355485  
C564     C      0.183650000000     0.832820000000     0.148370000000     0.0507778  
C565     C      0.204860000000     0.836040000000     0.165110000000    -0.0955602  
C566     C      0.206490000000     0.837420000000     0.201700000000     0.0748582  
C567     C      0.166560000000     0.832270000000     0.205470000000     0.0746505  
C568     C      0.164140000000     0.830330000000     0.168930000000    -0.0953111  
C569     C      0.449370000000     0.954910000000     0.957750000000     0.0744206  
C570     C      0.425360000000     0.942240000000     0.944900000000    -0.0943641  
C571     C      0.412930000000     0.954980000000     0.937100000000     0.0500934  
C572     C      0.425020000000     0.980340000000     0.942950000000    -0.0944422  
C573     C      0.449030000000     0.992430000000     0.955670000000     0.0745074  
C574     C      0.387660000000     0.942040000000     0.922430000000    -0.00715588 
C575     C      0.381130000000     0.924080000000     0.896210000000    -0.0353785  
C576     C      0.357580000000     0.912510000000     0.881620000000    -0.0354871  
C577     C      0.340010000000     0.918600000000     0.892960000000    -0.00704039 
C578     C      0.346480000000     0.936350000000     0.919490000000    -0.0355269  
C579     C      0.370020000000     0.947940000000     0.934000000000    -0.0354946  
C580     C      0.315000000000     0.906560000000     0.877280000000     0.0500064  
C581     C      0.302520000000     0.881440000000     0.869390000000    -0.094156   
C582     C      0.278670000000     0.870310000000     0.855990000000     0.0744188  
C583     C      0.279350000000     0.908340000000     0.857190000000     0.0745713  
C584     C      0.303190000000     0.920040000000     0.870550000000    -0.0945678  
C585     C      0.851030000000     0.662230000000     0.777160000000     0.0751066  
C586     C      0.849670000000     0.662440000000     0.813740000000    -0.0953101  
C587     C      0.846390000000     0.680390000000     0.830500000000     0.0509944  
C588     C      0.843820000000     0.697420000000     0.809960000000    -0.0950622  
C589     C      0.845740000000     0.696990000000     0.773430000000     0.0750276  
C590     C      0.847040000000     0.682140000000     0.869270000000    -0.00760515 
C591     C      0.866740000000     0.683010000000     0.887880000000    -0.0353691  
C592     C      0.867910000000     0.685290000000     0.924400000000    -0.0352124  
C593     C      0.849200000000     0.686320000000     0.943040000000    -0.00769279 
C594     C      0.829340000000     0.685190000000     0.924510000000    -0.0355724  
C595     C      0.828410000000     0.683400000000     0.887830000000    -0.0356558  
C596     C      0.850400000000     0.688120000000     0.981800000000     0.0509741  
C597     C      0.830860000000     0.671200000000     0.002410000000    -0.0949552  
C598     C      0.833280000000     0.671710000000     0.038940000000     0.0749021  
C599     C      0.873270000000     0.706310000000     0.035070000000     0.0753767  
C600     C      0.871630000000     0.706020000000     0.998480000000    -0.0954919  
C601     C      0.895300000000     0.697330000000     0.273500000000     0.0752713  
C602     C      0.897720000000     0.697850000000     0.310030000000    -0.0950797  
C603     C      0.878190000000     0.680920000000     0.330630000000     0.0511275  
C604     C      0.856950000000     0.663020000000     0.313940000000    -0.095432   
C605     C      0.855320000000     0.662730000000     0.277360000000     0.0752112  
C606     C      0.879370000000     0.682720000000     0.369400000000    -0.00761346 
C607     C      0.899230000000     0.683840000000     0.387940000000    -0.0354975  
C608     C      0.900140000000     0.685630000000     0.424620000000    -0.035385   
C609     C      0.881500000000     0.686890000000     0.443170000000    -0.00767733 
C610     C      0.861810000000     0.686020000000     0.424540000000    -0.0353229  
C611     C      0.860650000000     0.683750000000     0.388030000000    -0.0353417  
C612     C      0.882130000000     0.688620000000     0.481940000000     0.0512859  
C613     C      0.884690000000     0.671580000000     0.502470000000    -0.0952724  
C614     C      0.882750000000     0.672010000000     0.539000000000     0.0753469  
C615     C      0.877470000000     0.706760000000     0.535280000000     0.0753428  
C616     C      0.878850000000     0.706570000000     0.498690000000    -0.0954752  
C617     C      0.782970000000     0.623370000000     0.623940000000     0.0743739  
C618     C      0.758930000000     0.610620000000     0.611230000000    -0.0942911  
C619     C      0.746320000000     0.623220000000     0.603800000000     0.0501452  
C620     C      0.758250000000     0.648550000000     0.609920000000    -0.0946135  
C621     C      0.782300000000     0.660730000000     0.622510000000     0.0746946  
C622     C      0.721030000000     0.610190000000     0.589190000000    -0.0071462  
C623     C      0.714570000000     0.592330000000     0.562840000000    -0.0354506  
C624     C      0.691000000000     0.580660000000     0.548330000000    -0.0354353  
C625     C      0.673330000000     0.586560000000     0.559860000000    -0.00706791 
C626     C      0.679730000000     0.604220000000     0.586510000000    -0.0354884  
C627     C      0.703290000000     0.615900000000     0.600960000000    -0.0355015  
C628     C      0.648300000000     0.574410000000     0.544250000000     0.0500046  
C629     C      0.635930000000     0.549310000000     0.536300000000    -0.0941404  
C630     C      0.612060000000     0.538090000000     0.522930000000     0.07441    
C631     C      0.612520000000     0.576010000000     0.524300000000     0.0745221  
C632     C      0.636370000000     0.587790000000     0.537630000000    -0.0944128  
C633     C      0.945520000000     0.745600000000     0.688480000000     0.0763132  
C634     C      0.969570000000     0.758340000000     0.701170000000    -0.0970728  
C635     C      0.982170000000     0.745720000000     0.708560000000     0.0600687  
C636     C      0.970220000000     0.720400000000     0.702440000000    -0.0973383  
C637     C      0.946170000000     0.708220000000     0.689880000000     0.076564   
C638     C      0.007480000000     0.758740000000     0.723120000000    -0.0171724  
C639     C      0.013970000000     0.776600000000     0.749490000000    -0.0326618  
C640     C      0.037550000000     0.788220000000     0.763990000000    -0.0378664  
C641     C      0.055180000000     0.782270000000     0.752450000000    -0.00606853 
C642     C      0.048740000000     0.764630000000     0.725770000000    -0.0377546  
C643     C      0.025190000000     0.752990000000     0.711330000000    -0.0326698  
C644     C      0.080200000000     0.794340000000     0.768090000000     0.049184   
C645     C      0.092630000000     0.819440000000     0.776060000000    -0.0940923  
C646     C      0.116500000000     0.830590000000     0.789450000000     0.0739967  
C647     C      0.115890000000     0.792590000000     0.788060000000     0.0741376  
C648     C      0.092040000000     0.780880000000     0.774710000000    -0.0944128  
H1       H      0.795650000000     0.111060000000     0.686820000000     0.0253221  
H2       H      0.775530000000     0.069640000000     0.709710000000     0.0526187  
H3       H      0.844730000000     0.070910000000     0.708370000000     0.0530362  
H4       H      0.864260000000     0.112220000000     0.684750000000     0.0257559  
H5       H      0.774330000000     0.048950000000     0.763920000000     0.0375258  
H6       H      0.753930000000     0.007880000000     0.789190000000     0.0374773  
H7       H      0.795170000000     0.987250000000     0.720300000000     0.0377136  
H8       H      0.815540000000     0.028360000000     0.694840000000     0.0375697  
H9       H      0.724020000000     0.966160000000     0.771540000000     0.0527807  
H10      H      0.702530000000     0.924510000000     0.793520000000     0.0253781  
H11      H      0.769810000000     0.923010000000     0.796570000000     0.0255424  
H12      H      0.791920000000     0.964900000000     0.775000000000     0.0530439  
H13      H      0.865110000000     0.256540000000     0.629630000000     0.0254932  
H14      H      0.884910000000     0.298380000000     0.607830000000     0.0530347  
H15      H      0.953880000000     0.299250000000     0.604940000000     0.0535128  
H16      H      0.933690000000     0.257640000000     0.627140000000     0.0259218  
H17      H      0.904020000000     0.320610000000     0.553160000000     0.0376302  
H18      H      0.924740000000     0.361710000000     0.527680000000     0.038416   
H19      H      0.986350000000     0.382120000000     0.597060000000     0.0395153  
H20      H      0.965700000000     0.341050000000     0.622350000000     0.0380033  
H21      H      0.937990000000     0.404270000000     0.541180000000     0.0518899  
H22      H      0.959730000000     0.445600000000     0.517640000000     0.0273574  
H23      H      0.027090000000     0.444280000000     0.520170000000     0.0291614  
H24      H      0.005850000000     0.402840000000     0.542970000000     0.0422485  
H25      H      0.035480000000     0.591090000000     0.460310000000     0.0245635  
H26      H      0.056840000000     0.632680000000     0.438030000000     0.0519006  
H27      H      0.124840000000     0.631610000000     0.441430000000     0.0526382  
H28      H      0.102860000000     0.589800000000     0.463310000000     0.0253045  
H29      H      0.086750000000     0.674500000000     0.455360000000     0.0368478  
H30      H      0.107140000000     0.715530000000     0.429930000000     0.0369219  
H31      H      0.148270000000     0.694780000000     0.360950000000     0.0371965  
H32      H      0.127930000000     0.653730000000     0.386590000000     0.0374179  
H33      H      0.108420000000     0.736250000000     0.375770000000     0.0519263  
H34      H      0.128610000000     0.777650000000     0.352810000000     0.0247921  
H35      H      0.197110000000     0.778590000000     0.350620000000     0.0253442  
H36      H      0.177510000000     0.737300000000     0.374330000000     0.0525745  
H37      H      0.626220000000     0.778810000000     0.849320000000     0.02534    
H38      H      0.604090000000     0.736960000000     0.871020000000     0.0527122  
H39      H      0.671960000000     0.735630000000     0.874510000000     0.0526537  
H40      H      0.693470000000     0.777250000000     0.852420000000     0.0253358  
H41      H      0.600860000000     0.714720000000     0.925810000000     0.0375307  
H42      H      0.580420000000     0.673650000000     0.951390000000     0.037292   
H43      H      0.621490000000     0.652820000000     0.882420000000     0.0373287  
H44      H      0.641980000000     0.693860000000     0.857040000000     0.0372882  
H45      H      0.551130000000     0.631150000000     0.937980000000     0.0525442  
H46      H      0.531480000000     0.589850000000     0.961690000000     0.0253745  
H47      H      0.599930000000     0.590690000000     0.959550000000     0.0252495  
H48      H      0.620170000000     0.632090000000     0.936590000000     0.0524786  
H49      H      0.359960000000     0.110760000000     0.185880000000     0.0253161  
H50      H      0.338610000000     0.069130000000     0.207960000000     0.0525789  
H51      H      0.270600000000     0.070190000000     0.204830000000     0.0525069  
H52      H      0.292570000000     0.112060000000     0.183150000000     0.0252426  
H53      H      0.308720000000     0.027350000000     0.190460000000     0.0372683  
H54      H      0.288340000000     0.986260000000     0.215680000000     0.0373422  
H55      H      0.247180000000     0.006800000000     0.284930000000     0.0371715  
H56      H      0.267510000000     0.047920000000     0.259510000000     0.0374224  
H57      H      0.287050000000     0.965380000000     0.269710000000     0.0525001  
H58      H      0.266850000000     0.923940000000     0.292500000000     0.0252605  
H59      H      0.198360000000     0.923000000000     0.294870000000     0.025106   
H60      H      0.217950000000     0.964330000000     0.271330000000     0.0523349  
H61      H      0.461580000000     0.444500000000     0.019870000000     0.025303   
H62      H      0.441350000000     0.403060000000     0.042690000000     0.0525026  
H63      H      0.510410000000     0.404040000000     0.041100000000     0.0526573  
H64      H      0.530040000000     0.445360000000     0.017540000000     0.0254253  
H65      H      0.440020000000     0.382190000000     0.096730000000     0.0373034  
H66      H      0.419630000000     0.341120000000     0.122000000000     0.037277   
H67      H      0.460800000000     0.320470000000     0.053000000000     0.0376045  
H68      H      0.481150000000     0.361570000000     0.027530000000     0.0373784  
H69      H      0.389730000000     0.299320000000     0.104570000000     0.0526037  
H70      H      0.368380000000     0.257700000000     0.126710000000     0.0252199  
H71      H      0.435760000000     0.256400000000     0.129460000000     0.0253953  
H72      H      0.457730000000     0.298250000000     0.107720000000     0.0527257  
H73      H      0.724800000000     0.831220000000     0.720780000000     0.0252208  
H74      H      0.725770000000     0.828430000000     0.657140000000     0.0534816  
H75      H      0.663340000000     0.839070000000     0.649890000000     0.0535576  
H76      H      0.662460000000     0.841320000000     0.713510000000     0.0253445  
H77      H      0.697040000000     0.800390000000     0.604980000000     0.0378541  
H78      H      0.700380000000     0.802140000000     0.540580000000     0.0378571  
H79      H      0.700810000000     0.871030000000     0.540930000000     0.0384357  
H80      H      0.697080000000     0.869080000000     0.604960000000     0.0385131  
H81      H      0.671570000000     0.801730000000     0.488810000000     0.0534809  
H82      H      0.672170000000     0.805530000000     0.425190000000     0.025232   
H83      H      0.734700000000     0.877710000000     0.431940000000     0.0253524  
H84      H      0.734200000000     0.874530000000     0.495560000000     0.0535927  
H85      H      0.671360000000     0.870780000000     0.924990000000     0.02516    
H86      H      0.670630000000     0.874020000000     0.988600000000     0.0532899  
H87      H      0.733050000000     0.863370000000     0.995910000000     0.0537356  
H88      H      0.733690000000     0.860680000000     0.932330000000     0.0254746  
H89      H      0.699630000000     0.902460000000     0.040310000000     0.0379341  
H90      H      0.696470000000     0.901140000000     0.104730000000     0.0378341  
H91      H      0.695900000000     0.832190000000     0.105360000000     0.0384717  
H92      H      0.699470000000     0.833710000000     0.041300000000     0.038503   
H93      H      0.662470000000     0.829030000000     0.150440000000     0.0534504  
H94      H      0.661940000000     0.826080000000     0.214070000000     0.0252496  
H95      H      0.724700000000     0.898130000000     0.220440000000     0.0252868  
H96      H      0.725330000000     0.901710000000     0.156770000000     0.0535619  
H97      H      0.795270000000     0.689100000000     0.185340000000     0.0253267  
H98      H      0.775140000000     0.710620000000     0.207420000000     0.0527312  
H99      H      0.844130000000     0.778520000000     0.204130000000     0.0531434  
H100     H      0.863870000000     0.756380000000     0.182460000000     0.0257185  
H101     H      0.763370000000     0.740730000000     0.189960000000     0.0374529  
H102     H      0.742800000000     0.761190000000     0.215470000000     0.0373934  
H103     H      0.804520000000     0.801990000000     0.284750000000     0.0375721  
H104     H      0.825150000000     0.781570000000     0.259050000000     0.0378912  
H105     H      0.723440000000     0.762350000000     0.269820000000     0.0526339  
H106     H      0.702300000000     0.782620000000     0.292840000000     0.0252299  
H107     H      0.769730000000     0.851100000000     0.295010000000     0.0255575  
H108     H      0.791340000000     0.831410000000     0.271260000000     0.052897   
H109     H      0.601180000000     0.014950000000     0.459320000000     0.0253176  
H110     H      0.621450000000     0.993590000000     0.437040000000     0.0526668  
H111     H      0.552790000000     0.925390000000     0.441510000000     0.0527084  
H112     H      0.532930000000     0.947360000000     0.463410000000     0.0253542  
H113     H      0.633590000000     0.963740000000     0.454750000000     0.0374561  
H114     H      0.654170000000     0.943210000000     0.429460000000     0.0373829  
H115     H      0.592190000000     0.901810000000     0.360830000000     0.0372764  
H116     H      0.571550000000     0.922260000000     0.386360000000     0.037582   
H117     H      0.673370000000     0.941660000000     0.375290000000     0.0525776  
H118     H      0.694470000000     0.921290000000     0.352550000000     0.0252606  
H119     H      0.627070000000     0.852780000000     0.351040000000     0.0253676  
H120     H      0.605490000000     0.872560000000     0.374560000000     0.0526418  
H121     H      0.004650000000     0.537590000000     0.592280000000     0.0242471  
H122     H      0.003840000000     0.540640000000     0.655900000000     0.0524249  
H123     H      0.066400000000     0.530210000000     0.663120000000     0.0532155  
H124     H      0.067120000000     0.527700000000     0.599520000000     0.0250591  
H125     H      0.032600000000     0.568910000000     0.707820000000     0.037366   
H126     H      0.029290000000     0.567340000000     0.772220000000     0.0369953  
H127     H      0.029150000000     0.498590000000     0.772390000000     0.0372994  
H128     H      0.032860000000     0.500370000000     0.708350000000     0.0377823  
H129     H      0.995600000000     0.495050000000     0.817490000000     0.0601672  
H130     H      0.994950000000     0.491960000000     0.881120000000     0.0317071  
H131     H      0.057340000000     0.564220000000     0.887910000000     0.0248659  
H132     H      0.058080000000     0.567950000000     0.824270000000     0.0534239  
H133     H      0.057900000000     0.497820000000     0.388050000000     0.0248249  
H134     H      0.058690000000     0.494810000000     0.324410000000     0.0533656  
H135     H      0.996050000000     0.505110000000     0.317350000000     0.0603241  
H136     H      0.995350000000     0.507570000000     0.380960000000     0.0317928  
H137     H      0.029880000000     0.466550000000     0.272440000000     0.0369969  
H138     H      0.033100000000     0.468170000000     0.208020000000     0.0373694  
H139     H      0.033220000000     0.536900000000     0.208140000000     0.0377834  
H140     H      0.029590000000     0.535080000000     0.272190000000     0.0373356  
H141     H      0.004200000000     0.467610000000     0.156120000000     0.052494   
H142     H      0.004840000000     0.471380000000     0.092480000000     0.0242965  
H143     H      0.067260000000     0.543620000000     0.099260000000     0.0250304  
H144     H      0.066710000000     0.540480000000     0.162880000000     0.0531691  
H145     H      0.026740000000     0.586880000000     0.020270000000     0.0291516  
H146     H      0.005430000000     0.606990000000     0.043220000000     0.0423896  
H147     H      0.937700000000     0.537760000000     0.041660000000     0.0519415  
H148     H      0.959490000000     0.518240000000     0.017970000000     0.027358   
H149     H      0.985970000000     0.608000000000     0.097550000000     0.0395214  
H150     H      0.965290000000     0.628390000000     0.122930000000     0.0381097  
H151     H      0.903630000000     0.587450000000     0.053670000000     0.037669   
H152     H      0.924380000000     0.567100000000     0.028110000000     0.0384527  
H153     H      0.953510000000     0.658450000000     0.105260000000     0.0536226  
H154     H      0.933330000000     0.679960000000     0.127190000000     0.0259203  
H155     H      0.864750000000     0.612670000000     0.129990000000     0.025456   
H156     H      0.884540000000     0.590530000000     0.108460000000     0.0531187  
H157     H      0.337880000000     0.138250000000     0.758590000000     0.0250644  
H158     H      0.337160000000     0.134430000000     0.822210000000     0.0533448  
H159     H      0.399460000000     0.207430000000     0.829180000000     0.0534963  
H160     H      0.400090000000     0.210620000000     0.765570000000     0.0253194  
H161     H      0.365910000000     0.203650000000     0.874390000000     0.0384572  
H162     H      0.362230000000     0.201720000000     0.938430000000     0.038456   
H163     H      0.362730000000     0.133300000000     0.938480000000     0.0377281  
H164     H      0.366020000000     0.135040000000     0.874080000000     0.0378071  
H165     H      0.328780000000     0.171730000000     0.983560000000     0.0534441  
H166     H      0.328130000000     0.174170000000     0.047170000000     0.0252005  
H167     H      0.390710000000     0.164450000000     0.054070000000     0.0251771  
H168     H      0.391460000000     0.161480000000     0.990430000000     0.0532749  
H169     H      0.337660000000     0.204090000000     0.258530000000     0.0250332  
H170     H      0.337000000000     0.207220000000     0.322150000000     0.0532872  
H171     H      0.399680000000     0.196960000000     0.329050000000     0.0535418  
H172     H      0.400240000000     0.194360000000     0.265450000000     0.0253209  
H173     H      0.365810000000     0.235530000000     0.373940000000     0.0377465  
H174     H      0.362590000000     0.233950000000     0.438350000000     0.0377643  
H175     H      0.362670000000     0.165310000000     0.438390000000     0.0384384  
H176     H      0.366280000000     0.167090000000     0.374340000000     0.0384366  
H177     H      0.329100000000     0.161660000000     0.483500000000     0.0534434  
H178     H      0.328470000000     0.158540000000     0.547120000000     0.0252168  
H179     H      0.390740000000     0.230880000000     0.553960000000     0.0251435  
H180     H      0.391480000000     0.234620000000     0.490320000000     0.0533918  
H181     H      0.369120000000     0.115620000000     0.627380000000     0.0252501  
H182     H      0.390740000000     0.095550000000     0.605430000000     0.0527155  
H183     H      0.458420000000     0.164770000000     0.608240000000     0.0528178  
H184     H      0.436190000000     0.184440000000     0.629820000000     0.0253729  
H185     H      0.421080000000     0.084080000000     0.623190000000     0.0374967  
H186     H      0.441620000000     0.063540000000     0.597870000000     0.0375814  
H187     H      0.481850000000     0.124950000000     0.527790000000     0.0373342  
H188     H      0.461380000000     0.145570000000     0.553350000000     0.0376372  
H189     H      0.442610000000     0.043870000000     0.543840000000     0.0526649  
H190     H      0.462870000000     0.022710000000     0.520910000000     0.0253364  
H191     H      0.531100000000     0.090350000000     0.517390000000     0.0253385  
H192     H      0.511430000000     0.112000000000     0.541080000000     0.0526042  
H193     H      0.035390000000     0.448740000000     0.960120000000     0.0244739  
H194     H      0.056660000000     0.428640000000     0.937010000000     0.0518737  
H195     H      0.124400000000     0.497860000000     0.938500000000     0.0525521  
H196     H      0.102640000000     0.517380000000     0.962340000000     0.0253139  
H197     H      0.076030000000     0.427690000000     0.882540000000     0.0367532  
H198     H      0.096670000000     0.407340000000     0.856910000000     0.0368029  
H199     H      0.158440000000     0.448190000000     0.926020000000     0.0374747  
H200     H      0.137730000000     0.468500000000     0.951840000000     0.037208   
H201     H      0.108480000000     0.377260000000     0.874290000000     0.0520933  
H202     H      0.128630000000     0.355790000000     0.852060000000     0.0247812  
H203     H      0.197200000000     0.423110000000     0.849250000000     0.0252952  
H204     H      0.177430000000     0.445200000000     0.871080000000     0.0526793  
H205     H      0.198020000000     0.279590000000     0.795230000000     0.0250763  
H206     H      0.217490000000     0.257740000000     0.771520000000     0.0523645  
H207     H      0.286670000000     0.325510000000     0.769760000000     0.0525782  
H208     H      0.266620000000     0.346870000000     0.792750000000     0.0252651  
H209     H      0.246850000000     0.244410000000     0.784900000000     0.0371791  
H210     H      0.267160000000     0.223660000000     0.759200000000     0.0374094  
H211     H      0.307870000000     0.285350000000     0.689820000000     0.0373478  
H212     H      0.287530000000     0.306020000000     0.715330000000     0.0373519  
H213     H      0.270220000000     0.204550000000     0.704400000000     0.0525454  
H214     H      0.292410000000     0.184820000000     0.682770000000     0.0252127  
H215     H      0.359550000000     0.253570000000     0.685370000000     0.02531    
H216     H      0.337990000000     0.273680000000     0.707390000000     0.0526283  
H217     H      0.520430000000     0.543630000000     0.598770000000     0.0252757  
H218     H      0.517910000000     0.540460000000     0.662390000000     0.0534143  
H219     H      0.507820000000     0.467580000000     0.655560000000     0.0534643  
H220     H      0.510890000000     0.471390000000     0.591920000000     0.025195   
H221     H      0.547890000000     0.536790000000     0.707690000000     0.0383931  
H222     H      0.549720000000     0.534900000000     0.771750000000     0.0383597  
H223     H      0.481090000000     0.466470000000     0.771850000000     0.0378314  
H224     H      0.479480000000     0.468150000000     0.707430000000     0.0378458  
H225     H      0.480530000000     0.494810000000     0.823810000000     0.0534245  
H226     H      0.484310000000     0.497780000000     0.887450000000     0.0252111  
H227     H      0.556460000000     0.507220000000     0.880580000000     0.0252361  
H228     H      0.553310000000     0.504800000000     0.816960000000     0.0535001  
H229     H      0.577200000000     0.537470000000     0.091940000000     0.0252065  
H230     H      0.581020000000     0.540570000000     0.155570000000     0.0534651  
H231     H      0.508260000000     0.530630000000     0.162390000000     0.0535155  
H232     H      0.505070000000     0.528080000000     0.098780000000     0.0252741  
H233     H      0.580490000000     0.569040000000     0.207410000000     0.0378335  
H234     H      0.582150000000     0.567480000000     0.271830000000     0.0378664  
H235     H      0.513740000000     0.498830000000     0.271800000000     0.0383915  
H236     H      0.511870000000     0.500600000000     0.207740000000     0.038371   
H237     H      0.543820000000     0.495250000000     0.317050000000     0.0534658  
H238     H      0.541350000000     0.492140000000     0.380670000000     0.0252759  
H239     H      0.550790000000     0.564340000000     0.387410000000     0.0252229  
H240     H      0.553810000000     0.568100000000     0.323760000000     0.0534095  
H241     H      0.883660000000     0.229880000000     0.054700000000     0.0256141  
H242     H      0.886800000000     0.233790000000     0.991080000000     0.0536585  
H243     H      0.876960000000     0.161010000000     0.984080000000     0.0539691  
H244     H      0.874360000000     0.157740000000     0.047690000000     0.0256273  
H245     H      0.915310000000     0.233420000000     0.939360000000     0.0385638  
H246     H      0.913820000000     0.235240000000     0.874950000000     0.0384335  
H247     H      0.845320000000     0.166670000000     0.874630000000     0.0384986  
H248     H      0.847020000000     0.164650000000     0.938690000000     0.038565   
H249     H      0.914600000000     0.207070000000     0.822930000000     0.0540322  
H250     H      0.910940000000     0.204200000000     0.759270000000     0.0257112  
H251     H      0.838680000000     0.194490000000     0.765910000000     0.0253285  
H252     H      0.841710000000     0.196820000000     0.829540000000     0.0536428  
H253     H      0.853780000000     0.209220000000     0.265980000000     0.0256359  
H254     H      0.851400000000     0.206150000000     0.329600000000     0.0538064  
H255     H      0.841860000000     0.133470000000     0.322950000000     0.0536002  
H256     H      0.844780000000     0.137180000000     0.259290000000     0.0253621  
H257     H      0.881670000000     0.202790000000     0.374750000000     0.0390142  
H258     H      0.883590000000     0.201130000000     0.438820000000     0.0389116  
H259     H      0.815140000000     0.132520000000     0.439340000000     0.0379179  
H260     H      0.813430000000     0.133970000000     0.374900000000     0.037921   
H261     H      0.887370000000     0.171280000000     0.484300000000     0.0539897  
H262     H      0.890550000000     0.173990000000     0.547900000000     0.025757   
H263     H      0.818290000000     0.164270000000     0.554600000000     0.0252115  
H264     H      0.814470000000     0.161020000000     0.490980000000     0.0534849  
H265     H      0.177660000000     0.377790000000     0.424720000000     0.0250241  
H266     H      0.174600000000     0.378490000000     0.488350000000     0.0532362  
H267     H      0.184870000000     0.315780000000     0.495250000000     0.0533681  
H268     H      0.187400000000     0.315170000000     0.431640000000     0.0251202  
H269     H      0.146360000000     0.349660000000     0.540250000000     0.0373928  
H270     H      0.148010000000     0.352910000000     0.604660000000     0.0373675  
H271     H      0.216640000000     0.352930000000     0.604530000000     0.038308   
H272     H      0.214790000000     0.349270000000     0.540480000000     0.0383602  
H273     H      0.147440000000     0.324040000000     0.656640000000     0.0529081  
H274     H      0.151250000000     0.324810000000     0.720280000000     0.0247605  
H275     H      0.223460000000     0.387220000000     0.713300000000     0.0252298  
H276     H      0.220290000000     0.386540000000     0.649680000000     0.0533763  
H277     H      0.217690000000     0.324910000000     0.220340000000     0.0250278  
H278     H      0.220730000000     0.324200000000     0.156710000000     0.0532972  
H279     H      0.210450000000     0.386900000000     0.149800000000     0.0534158  
H280     H      0.207940000000     0.387520000000     0.213410000000     0.0251973  
H281     H      0.180530000000     0.353400000000     0.104590000000     0.0382134  
H282     H      0.178660000000     0.349730000000     0.040540000000     0.0382346  
H283     H      0.247280000000     0.349740000000     0.040380000000     0.0378127  
H284     H      0.248950000000     0.353020000000     0.104790000000     0.0377718  
H285     H      0.175000000000     0.316120000000     0.995390000000     0.053196   
H286     H      0.171820000000     0.315430000000     0.931770000000     0.0249745  
H287     H      0.244030000000     0.377830000000     0.924770000000     0.0251919  
H288     H      0.247850000000     0.378610000000     0.988410000000     0.05332    
H289     H      0.125690000000     0.279800000000     0.294780000000     0.0251201  
H290     H      0.084350000000     0.258030000000     0.271430000000     0.0518887  
H291     H      0.082870000000     0.325920000000     0.269820000000     0.0518873  
H292     H      0.124340000000     0.347200000000     0.292420000000     0.0251268  
H293     H      0.041920000000     0.244650000000     0.285130000000     0.0370275  
H294     H      0.000780000000     0.223770000000     0.259930000000     0.0342668  
H295     H      0.020640000000     0.285550000000     0.191100000000     0.0344879  
H296     H      0.061770000000     0.306360000000     0.216090000000     0.0373877  
H297     H      0.978490000000     0.204610000000     0.205400000000     0.0557407  
H298     H      0.936640000000     0.184550000000     0.183750000000     0.0256813  
H299     H      0.937180000000     0.252900000000     0.186510000000     0.025613   
H300     H      0.978800000000     0.273350000000     0.208560000000     0.055722   
H301     H      0.269780000000     0.422950000000     0.349820000000     0.0253477  
H302     H      0.311580000000     0.444890000000     0.371640000000     0.052675   
H303     H      0.312570000000     0.376790000000     0.374800000000     0.0524263  
H304     H      0.271000000000     0.355480000000     0.352570000000     0.0252539  
H305     H      0.333890000000     0.448090000000     0.426220000000     0.0375459  
H306     H      0.374980000000     0.468450000000     0.451610000000     0.0372909  
H307     H      0.395400000000     0.427010000000     0.382680000000     0.0373009  
H308     H      0.354330000000     0.406610000000     0.357490000000     0.0372893  
H309     H      0.417410000000     0.497620000000     0.438110000000     0.0524975  
H310     H      0.458720000000     0.517250000000     0.461660000000     0.0254622  
H311     H      0.457790000000     0.448700000000     0.459390000000     0.0252613  
H312     H      0.416370000000     0.428470000000     0.436590000000     0.0524127  
H313     H      0.550480000000     0.988250000000     0.889460000000     0.0251432  
H314     H      0.555520000000     0.988060000000     0.826460000000     0.052243   
H315     H      0.546920000000     0.051880000000     0.818000000000     0.0526257  
H316     H      0.543080000000     0.052150000000     0.881120000000     0.0253537  
H317     H      0.532110000000     0.978820000000     0.774780000000     0.0371828  
H318     H      0.531870000000     0.976830000000     0.711070000000     0.0370096  
H319     H      0.570570000000     0.056080000000     0.706000000000     0.0372392  
H320     H      0.572460000000     0.058060000000     0.769700000000     0.037054   
H321     H      0.512410000000     0.983070000000     0.662840000000     0.0524983  
H322     H      0.508210000000     0.982750000000     0.599720000000     0.0253441  
H323     H      0.579310000000     0.046550000000     0.591260000000     0.0252454  
H324     H      0.584620000000     0.046780000000     0.654270000000     0.052369   
H325     H      0.556640000000     0.054350000000     0.380420000000     0.0253626  
H326     H      0.553060000000     0.053230000000     0.316850000000     0.0536292  
H327     H      0.480570000000     0.990310000000     0.324950000000     0.0533701  
H328     H      0.484790000000     0.991510000000     0.388580000000     0.0251556  
H329     H      0.480750000000     0.018990000000     0.272420000000     0.0378885  
H330     H      0.478930000000     0.015340000000     0.208030000000     0.0378547  
H331     H      0.547370000000     0.015010000000     0.208350000000     0.0384985  
H332     H      0.549410000000     0.019100000000     0.272340000000     0.0385233  
H333     H      0.507360000000     0.044020000000     0.155630000000     0.0534329  
H334     H      0.510470000000     0.042930000000     0.092020000000     0.0251983  
H335     H      0.519590000000     0.979990000000     0.100130000000     0.0252812  
H336     H      0.517040000000     0.981000000000     0.163690000000     0.053497   
H337     H      0.602720000000     0.087110000000     0.018420000000     0.0254388  
H338     H      0.644020000000     0.108810000000     0.041880000000     0.0525791  
H339     H      0.645070000000     0.040720000000     0.044690000000     0.0524511  
H340     H      0.603620000000     0.019500000000     0.022000000000     0.0252801  
H341     H      0.686340000000     0.121950000000     0.028380000000     0.0373537  
H342     H      0.727470000000     0.142880000000     0.053590000000     0.0376464  
H343     H      0.707480000000     0.081390000000     0.123080000000     0.0374575  
H344     H      0.666350000000     0.060540000000     0.098110000000     0.0373405  
H345     H      0.749710000000     0.162240000000     0.108180000000     0.0527399  
H346     H      0.791570000000     0.182350000000     0.129820000000     0.025547   
H347     H      0.790990000000     0.113970000000     0.127590000000     0.0254409  
H348     H      0.749350000000     0.093460000000     0.105580000000     0.0526482  
H349     H      0.217710000000     0.896980000000     0.720440000000     0.0250925  
H350     H      0.220790000000     0.900780000000     0.656810000000     0.0533203  
H351     H      0.210460000000     0.827810000000     0.649980000000     0.0534551  
H352     H      0.207930000000     0.824640000000     0.713600000000     0.025173   
H353     H      0.249040000000     0.900140000000     0.604940000000     0.0378049  
H354     H      0.247420000000     0.901840000000     0.540530000000     0.0378345  
H355     H      0.178750000000     0.833460000000     0.540610000000     0.0381672  
H356     H      0.180570000000     0.831550000000     0.604670000000     0.0381281  
H357     H      0.247970000000     0.873560000000     0.488550000000     0.0533956  
H358     H      0.244180000000     0.870610000000     0.424900000000     0.0252611  
H359     H      0.172030000000     0.861140000000     0.431800000000     0.0249325  
H360     H      0.175170000000     0.863540000000     0.495430000000     0.0531234  
H361     H      0.177560000000     0.804010000000     0.924960000000     0.0250841  
H362     H      0.174530000000     0.800270000000     0.988610000000     0.0532688  
H363     H      0.184780000000     0.873210000000     0.995310000000     0.0531871  
H364     H      0.187250000000     0.876320000000     0.931690000000     0.025077   
H365     H      0.146290000000     0.800970000000     0.040540000000     0.0374699  
H366     H      0.147950000000     0.799400000000     0.104960000000     0.0374091  
H367     H      0.216620000000     0.867780000000     0.104620000000     0.0383331  
H368     H      0.214760000000     0.869550000000     0.040560000000     0.0383667  
H369     H      0.220220000000     0.837790000000     0.149960000000     0.05348    
H370     H      0.223410000000     0.840330000000     0.213570000000     0.0252388  
H371     H      0.151280000000     0.830920000000     0.220440000000     0.0247728  
H372     H      0.147450000000     0.827820000000     0.156810000000     0.0529375  
H373     H      0.458350000000     0.944350000000     0.963210000000     0.0253106  
H374     H      0.416580000000     0.922570000000     0.941230000000     0.052623   
H375     H      0.416200000000     0.990960000000     0.936980000000     0.0526003  
H376     H      0.457740000000     0.012110000000     0.959340000000     0.0254435  
H377     H      0.394400000000     0.919350000000     0.886380000000     0.0375543  
H378     H      0.353310000000     0.899150000000     0.860950000000     0.0373488  
H379     H      0.333270000000     0.941130000000     0.929370000000     0.0373154  
H380     H      0.374330000000     0.961400000000     0.954560000000     0.0372798  
H381     H      0.310860000000     0.870250000000     0.874380000000     0.0524974  
H382     H      0.269560000000     0.850760000000     0.850830000000     0.0253998  
H383     H      0.270880000000     0.919500000000     0.852760000000     0.0252227  
H384     H      0.312300000000     0.939590000000     0.875520000000     0.0524537  
H385     H      0.854000000000     0.648260000000     0.765270000000     0.0256055  
H386     H      0.851470000000     0.648810000000     0.828880000000     0.0537729  
H387     H      0.841270000000     0.711580000000     0.822110000000     0.0535582  
H388     H      0.844330000000     0.710920000000     0.758480000000     0.0253314  
H389     H      0.881420000000     0.682280000000     0.874100000000     0.0390222  
H390     H      0.883310000000     0.685920000000     0.938150000000     0.0388952  
H391     H      0.814720000000     0.685990000000     0.938390000000     0.0378616  
H392     H      0.813030000000     0.682730000000     0.873980000000     0.0378455  
H393     H      0.814150000000     0.657090000000     0.990320000000     0.0533205  
H394     H      0.817980000000     0.657870000000     0.053950000000     0.0252389  
H395     H      0.890210000000     0.720260000000     0.046910000000     0.0257893  
H396     H      0.887010000000     0.719560000000     0.983300000000     0.0540923  
H397     H      0.910610000000     0.711180000000     0.258490000000     0.025693   
H398     H      0.914430000000     0.711970000000     0.322130000000     0.0539987  
H399     H      0.841570000000     0.649480000000     0.329130000000     0.0536816  
H400     H      0.838390000000     0.648780000000     0.265520000000     0.025405   
H401     H      0.913850000000     0.683050000000     0.374070000000     0.0384859  
H402     H      0.915510000000     0.686290000000     0.438480000000     0.038477   
H403     H      0.847120000000     0.686750000000     0.438310000000     0.0385715  
H404     H      0.845260000000     0.683120000000     0.374260000000     0.0385727  
H405     H      0.887240000000     0.657430000000     0.490330000000     0.0538775  
H406     H      0.884160000000     0.658070000000     0.553960000000     0.0255017  
H407     H      0.874500000000     0.720740000000     0.547170000000     0.0255951  
H408     H      0.877060000000     0.720200000000     0.483560000000     0.0539304  
H409     H      0.792090000000     0.612910000000     0.629090000000     0.0255424  
H410     H      0.750270000000     0.590970000000     0.607370000000     0.0527219  
H411     H      0.749300000000     0.659080000000     0.604240000000     0.0526363  
H412     H      0.790890000000     0.680390000000     0.626370000000     0.0253607  
H413     H      0.727900000000     0.587750000000     0.552850000000     0.0376587  
H414     H      0.686780000000     0.567370000000     0.527570000000     0.0373996  
H415     H      0.666440000000     0.608850000000     0.596530000000     0.0373472  
H416     H      0.707540000000     0.629280000000     0.621620000000     0.0373031  
H417     H      0.644370000000     0.538200000000     0.541200000000     0.0525617  
H418     H      0.603040000000     0.518550000000     0.517720000000     0.0254352  
H419     H      0.603960000000     0.587090000000     0.519950000000     0.0253143  
H420     H      0.645390000000     0.607340000000     0.542670000000     0.0524256  
H421     H      0.936410000000     0.756060000000     0.683350000000     0.0256221  
H422     H      0.978240000000     0.777990000000     0.705030000000     0.0556472  
H423     H      0.979170000000     0.709860000000     0.708100000000     0.0556097  
H424     H      0.937570000000     0.688560000000     0.686010000000     0.0256153  
H425     H      0.000660000000     0.781210000000     0.759500000000     0.0342822  
H426     H      0.041790000000     0.801510000000     0.784770000000     0.0369748  
H427     H      0.062010000000     0.759960000000     0.715740000000     0.0372941  
H428     H      0.020910000000     0.739620000000     0.690660000000     0.0344265  
H429     H      0.084260000000     0.830610000000     0.771170000000     0.0519019  
H430     H      0.125570000000     0.850130000000     0.794670000000     0.0250979  
H431     H      0.124380000000     0.781450000000     0.792410000000     0.0251215  
H432     H      0.082960000000     0.761340000000     0.769650000000     0.0519197  
N1       N      0.831500000000     0.114850000000     0.684460000000    -0.198765   
N2       N      0.734510000000     0.920550000000     0.796390000000    -0.198872   
N3       N      0.897860000000     0.253890000000     0.629750000000    -0.198822   
N4       N      0.995070000000     0.448160000000     0.517590000000    -0.188291   
N5       N      0.067520000000     0.587240000000     0.463180000000    -0.198898   
N6       N      0.164420000000     0.781330000000     0.350380000000    -0.198935   
N7       N      0.661510000000     0.781240000000     0.849520000000    -0.198875   
N8       N      0.564140000000     0.587060000000     0.961960000000    -0.198806   
N9       N      0.327920000000     0.114620000000     0.183160000000    -0.198842   
N10      N      0.231050000000     0.920250000000     0.295020000000    -0.198889   
N11      N      0.497370000000     0.448140000000     0.017370000000    -0.198687   
N12      N      0.400410000000     0.253840000000     0.129440000000    -0.198889   
N13      N      0.693830000000     0.836890000000     0.721830000000    -0.199034   
N14      N      0.703210000000     0.842050000000     0.423890000000    -0.199074   
N15      N      0.702310000000     0.865090000000     0.923980000000    -0.199041   
N16      N      0.693560000000     0.861690000000     0.221940000000    -0.199132   
N17      N      0.831120000000     0.721070000000     0.182580000000    -0.199125   
N18      N      0.734370000000     0.818420000000     0.295260000000    -0.19905    
N19      N      0.565510000000     0.982810000000     0.462730000000    -0.199112   
N20      N      0.662420000000     0.885470000000     0.350480000000    -0.199066   
N21      N      0.035670000000     0.532010000000     0.591220000000    -0.199149   
N22      N      0.026370000000     0.527670000000     0.889200000000    -0.198466   
N23      N      0.026840000000     0.503330000000     0.389180000000    -0.198427   
N24      N      0.035820000000     0.507930000000     0.091190000000    -0.199181   
N25      N      0.994780000000     0.551010000000     0.017800000000    -0.18839    
N26      N      0.897500000000     0.647980000000     0.129910000000    -0.19905    
N27      N      0.368770000000     0.174860000000     0.757400000000    -0.199177   
N28      N      0.359640000000     0.169950000000     0.055290000000    -0.199117   
N29      N      0.368730000000     0.198580000000     0.257310000000    -0.199234   
N30      N      0.359820000000     0.194290000000     0.555220000000    -0.199204   
N31      N      0.400980000000     0.151560000000     0.629920000000    -0.19907    
N32      N      0.498550000000     0.054880000000     0.517820000000    -0.199089   
N33      N      0.067350000000     0.484610000000     0.962560000000    -0.19904    
N34      N      0.164450000000     0.387790000000     0.849310000000    -0.199174   
N35      N      0.230770000000     0.314890000000     0.795290000000    -0.199007   
N36      N      0.327640000000     0.217660000000     0.682740000000    -0.199009   
N37      N      0.516300000000     0.507930000000     0.590660000000    -0.19899    
N38      N      0.520810000000     0.503140000000     0.888700000000    -0.199081   
N39      N      0.540710000000     0.532130000000     0.090670000000    -0.199029   
N40      N      0.545430000000     0.527820000000     0.388730000000    -0.198984   
N41      N      0.878370000000     0.193380000000     0.055870000000    -0.198986   
N42      N      0.874400000000     0.198700000000     0.757910000000    -0.199046   
N43      N      0.849910000000     0.173620000000     0.257950000000    -0.199      
N44      N      0.854850000000     0.169780000000     0.555930000000    -0.199102   
N45      N      0.183170000000     0.346700000000     0.423500000000    -0.199046   
N46      N      0.187780000000     0.355800000000     0.721470000000    -0.199111   
N47      N      0.212170000000     0.355990000000     0.221560000000    -0.199074   
N48      N      0.207500000000     0.346840000000     0.923590000000    -0.199062   
N49      N      0.128230000000     0.315160000000     0.294940000000    -0.198585   
N50      N      0.933700000000     0.217160000000     0.183760000000    -0.199035   
N51      N      0.267190000000     0.387560000000     0.349810000000    -0.198609   
N52      N      0.461470000000     0.484530000000     0.461880000000    -0.198643   
N53      N      0.546070000000     0.020000000000     0.889950000000    -0.198983   
N54      N      0.543250000000     0.014850000000     0.590830000000    -0.198874   
N55      N      0.521180000000     0.022740000000     0.389180000000    -0.19899    
N56      N      0.515700000000     0.011660000000     0.091400000000    -0.198866   
N57      N      0.599960000000     0.051650000000     0.018830000000    -0.198715   
N58      N      0.794490000000     0.149730000000     0.130060000000    -0.19864    
N59      N      0.212180000000     0.860380000000     0.721700000000    -0.199008   
N60      N      0.207680000000     0.865240000000     0.423670000000    -0.198914   
N61      N      0.183050000000     0.840590000000     0.923640000000    -0.198929   
N62      N      0.187770000000     0.836270000000     0.221690000000    -0.199035   
N63      N      0.461240000000     0.979870000000     0.962690000000    -0.198638   
N64      N      0.267010000000     0.883580000000     0.850450000000    -0.198683   
N65      N      0.849810000000     0.679820000000     0.757200000000    -0.19901    
N66      N      0.854520000000     0.688850000000     0.055110000000    -0.199119   
N67      N      0.874080000000     0.680190000000     0.257330000000    -0.199061   
N68      N      0.878680000000     0.689170000000     0.555240000000    -0.199133   
N69      N      0.794690000000     0.648310000000     0.629110000000    -0.198662   
N70      N      0.600290000000     0.551260000000     0.517480000000    -0.198635   
N71      N      0.933780000000     0.720660000000     0.683310000000    -0.199069   
N72      N      0.128190000000     0.817340000000     0.794890000000    -0.19862    
Ni1      Ni     0.864580000000     0.665760000000     0.657590000000     1.00282    
Ni2      Ni     0.863890000000     0.703210000000     0.654840000000     1.0028     
Ni3      Ni     0.197270000000     0.831410000000     0.821300000000     1.00171    
Ni4      Ni     0.197930000000     0.869530000000     0.824030000000     1.00161    
Ni5      Ni     0.530810000000     0.996950000000     0.992390000000     1.00201    
Ni6      Ni     0.530450000000     0.034540000000     0.988820000000     1.00119    
Ni7      Ni     0.198030000000     0.332630000000     0.323940000000     1.00213    
Ni8      Ni     0.197320000000     0.370070000000     0.321120000000     1.00175    
Ni9      Ni     0.863940000000     0.164480000000     0.155510000000     1.00211    
Ni10     Ni     0.864260000000     0.202430000000     0.158290000000     1.00288    
Ni11     Ni     0.530630000000     0.498870000000     0.488330000000     1.00204    
Ni12     Ni     0.531120000000     0.536910000000     0.491060000000     1.00184    
Ni13     Ni     0.216670000000     0.369990000000     0.821090000000     1.0039     
Ni14     Ni     0.178600000000     0.332640000000     0.823970000000     1.0029     
Ni15     Ni     0.382920000000     0.203690000000     0.657740000000     1.00391    
Ni16     Ni     0.345680000000     0.165500000000     0.654890000000     1.0036     
Ni17     Ni     0.049740000000     0.536860000000     0.991580000000     1.00339    
Ni18     Ni     0.012400000000     0.498760000000     0.988830000000     0.994598   
Ni19     Ni     0.717110000000     0.870920000000     0.324230000000     1.0036     
Ni20     Ni     0.679660000000     0.832920000000     0.321620000000     1.00411    
Ni21     Ni     0.883340000000     0.703190000000     0.154760000000     1.00468    
Ni22     Ni     0.845250000000     0.665860000000     0.157680000000     1.00348    
Ni23     Ni     0.550950000000     0.037660000000     0.488250000000     1.00359    
Ni24     Ni     0.513110000000     0.000120000000     0.491900000000     1.00289    
Ni25     Ni     0.345470000000     0.184610000000     0.154900000000     1.00322    
Ni26     Ni     0.382860000000     0.183860000000     0.157730000000     1.00335    
Ni27     Ni     0.511760000000     0.517390000000     0.991080000000     1.00222    
Ni28     Ni     0.549740000000     0.517830000000     0.988310000000     1.00228    
Ni29     Ni     0.178730000000     0.850540000000     0.324070000000     1.00204    
Ni30     Ni     0.216740000000     0.851030000000     0.321270000000     1.00253    
Ni31     Ni     0.012570000000     0.518030000000     0.488720000000     0.994122   
Ni32     Ni     0.049960000000     0.517300000000     0.491690000000     1.00275    
Ni33     Ni     0.845620000000     0.184010000000     0.658230000000     1.00278    
Ni34     Ni     0.883700000000     0.184650000000     0.655560000000     1.00369    
Ni35     Ni     0.679360000000     0.851330000000     0.821400000000     1.00295    
Ni36     Ni     0.716670000000     0.850450000000     0.824460000000     1.00284    
O1       O      0.872770000000     0.669870000000     0.608650000000    -0.450401   
O2       O      0.856510000000     0.664190000000     0.706420000000    -0.450634   
O3       O      0.830410000000     0.649220000000     0.645460000000    -0.449306   
O4       O      0.898640000000     0.684720000000     0.669450000000    -0.450177   
O5       O      0.898060000000     0.719760000000     0.666970000000    -0.449115   
O6       O      0.829840000000     0.684260000000     0.642970000000    -0.450538   
O7       O      0.855700000000     0.699110000000     0.703790000000    -0.450372   
O8       O      0.871960000000     0.704790000000     0.606010000000    -0.450439   
O9       O      0.188970000000     0.827230000000     0.870230000000    -0.449939   
O10      O      0.205450000000     0.838000000000     0.772490000000    -0.450401   
O11      O      0.231410000000     0.848930000000     0.833630000000    -0.449063   
O12      O      0.163250000000     0.816410000000     0.809250000000    -0.450852   
O13      O      0.163790000000     0.852000000000     0.811710000000    -0.449299   
O14      O      0.231960000000     0.884530000000     0.836080000000    -0.450422   
O15      O      0.206240000000     0.873710000000     0.775120000000    -0.450429   
O16      O      0.189750000000     0.862950000000     0.872840000000    -0.450346   
O17      O      0.539300000000     0.000760000000     0.943570000000    -0.450757   
O18      O      0.522460000000     0.995660000000     0.041060000000    -0.450398   
O19      O      0.496720000000     0.980560000000     0.979810000000    -0.449339   
O20      O      0.564820000000     0.015770000000     0.004670000000    -0.449999   
O21      O      0.564520000000     0.050930000000     0.001480000000    -0.449224   
O22      O      0.496470000000     0.015740000000     0.976510000000    -0.450458   
O23      O      0.521920000000     0.030700000000     0.037680000000    -0.449629   
O24      O      0.538890000000     0.035850000000     0.940150000000    -0.44996    
O25      O      0.189910000000     0.331060000000     0.372760000000    -0.450536   
O26      O      0.206270000000     0.336730000000     0.275010000000    -0.450483   
O27      O      0.232070000000     0.351600000000     0.335880000000    -0.450501   
O28      O      0.163880000000     0.316070000000     0.311710000000    -0.449434   
O29      O      0.163280000000     0.351100000000     0.309160000000    -0.450369   
O30      O      0.231480000000     0.386630000000     0.333340000000    -0.449253   
O31      O      0.205450000000     0.371640000000     0.272300000000    -0.45054    
O32      O      0.189070000000     0.365970000000     0.370050000000    -0.450264   
O33      O      0.871880000000     0.171030000000     0.106630000000    -0.450029   
O34      O      0.855860000000     0.160340000000     0.204510000000    -0.45029    
O35      O      0.829840000000     0.149200000000     0.143810000000    -0.450531   
O36      O      0.898130000000     0.182270000000     0.167490000000    -0.448918   
O37      O      0.898350000000     0.217710000000     0.170040000000    -0.450245   
O38      O      0.830070000000     0.184640000000     0.146260000000    -0.449036   
O39      O      0.856290000000     0.195880000000     0.207140000000    -0.450454   
O40      O      0.872370000000     0.206600000000     0.109320000000    -0.450355   
O41      O      0.538810000000     0.505480000000     0.439530000000    -0.450393   
O42      O      0.522310000000     0.494660000000     0.537250000000    -0.450116   
O43      O      0.496600000000     0.483750000000     0.476260000000    -0.450544   
O44      O      0.564760000000     0.516510000000     0.500670000000    -0.449209   
O45      O      0.565150000000     0.552030000000     0.503120000000    -0.450543   
O46      O      0.496980000000     0.519270000000     0.478740000000    -0.449016   
O47      O      0.522950000000     0.530300000000     0.539870000000    -0.450352   
O48      O      0.539420000000     0.541110000000     0.442140000000    -0.450052   
O49      O      0.210120000000     0.371480000000     0.772220000000    -0.450706   
O50      O      0.220820000000     0.365980000000     0.870080000000    -0.450566   
O51      O      0.231680000000     0.350900000000     0.809380000000    -0.451599   
O52      O      0.199140000000     0.386680000000     0.833050000000    -0.450259   
O53      O      0.163590000000     0.351740000000     0.835650000000    -0.451614   
O54      O      0.196130000000     0.315950000000     0.811990000000    -0.450258   
O55      O      0.185150000000     0.331160000000     0.872840000000    -0.450783   
O56      O      0.174460000000     0.336660000000     0.774980000000    -0.450822   
O57      O      0.384380000000     0.197230000000     0.706640000000    -0.450782   
O58      O      0.378930000000     0.207730000000     0.608710000000    -0.450702   
O59      O      0.363730000000     0.218630000000     0.669240000000    -0.451443   
O60      O      0.399710000000     0.186220000000     0.645960000000    -0.450308   
O61      O      0.364870000000     0.150570000000     0.643390000000    -0.45163    
O62      O      0.328880000000     0.182980000000     0.666680000000    -0.449987   
O63      O      0.344210000000     0.171960000000     0.605990000000    -0.450922   
O64      O      0.349660000000     0.161460000000     0.703910000000    -0.450815   
O65      O      0.045590000000     0.541020000000     0.942640000000    -0.450638   
O66      O      0.051370000000     0.530280000000     0.040410000000    -0.450648   
O67      O      0.066360000000     0.519290000000     0.979370000000    -0.450079   
O68      O      0.030720000000     0.551900000000     0.003520000000    -0.448519   
O69      O      0.995780000000     0.516330000000     0.001030000000    -0.438342   
O70      O      0.031430000000     0.483720000000     0.976890000000    -0.450731   
O71      O      0.016550000000     0.494610000000     0.037770000000    -0.450476   
O72      O      0.010780000000     0.505340000000     0.940000000000    -0.451233   
O73      O      0.712920000000     0.875040000000     0.275290000000    -0.450522   
O74      O      0.718750000000     0.864380000000     0.373080000000    -0.450367   
O75      O      0.733570000000     0.853200000000     0.312030000000    -0.450289   
O76      O      0.698240000000     0.886120000000     0.336170000000    -0.45139    
O77      O      0.663200000000     0.850640000000     0.333870000000    -0.450088   
O78      O      0.698530000000     0.817730000000     0.309620000000    -0.451582   
O79      O      0.683850000000     0.828770000000     0.370530000000    -0.450775   
O80      O      0.677990000000     0.839470000000     0.272810000000    -0.451024   
O81      O      0.887420000000     0.699270000000     0.203790000000    -0.450646   
O82      O      0.876850000000     0.704580000000     0.105850000000    -0.450619   
O83      O      0.865800000000     0.719920000000     0.166490000000    -0.450105   
O84      O      0.898360000000     0.684060000000     0.143310000000    -0.451217   
O85      O      0.862800000000     0.649130000000     0.145940000000    -0.449935   
O86      O      0.830240000000     0.684990000000     0.169140000000    -0.451642   
O87      O      0.841170000000     0.669780000000     0.108640000000    -0.450734   
O88      O      0.851750000000     0.664460000000     0.206580000000    -0.450751   
O89      O      0.555630000000     0.033970000000     0.537150000000    -0.450704   
O90      O      0.543890000000     0.038830000000     0.439530000000    -0.450785   
O91      O      0.533250000000     0.054130000000     0.500570000000    -0.449974   
O92      O      0.566140000000     0.018760000000     0.476290000000    -0.451184   
O93      O      0.530790000000     0.983650000000     0.479560000000    -0.450284   
O94      O      0.497930000000     0.018990000000     0.503930000000    -0.451526   
O95      O      0.508420000000     0.003840000000     0.442970000000    -0.449868   
O96      O      0.520230000000     0.998920000000     0.540640000000    -0.450124   
O97      O      0.343970000000     0.176610000000     0.106050000000    -0.450817   
O98      O      0.349500000000     0.192720000000     0.203860000000    -0.450992   
O99      O      0.364460000000     0.218690000000     0.143160000000    -0.451187   
O100     O      0.328890000000     0.150400000000     0.166910000000    -0.449801   
O101     O      0.363880000000     0.149770000000     0.169460000000    -0.450809   
O102     O      0.399440000000     0.218060000000     0.145720000000    -0.449902   
O103     O      0.384360000000     0.191860000000     0.206580000000    -0.450901   
O104     O      0.378830000000     0.175750000000     0.108760000000    -0.450846   
O105     O      0.518370000000     0.525530000000     0.039900000000    -0.450368   
O106     O      0.507550000000     0.509110000000     0.942150000000    -0.450358   
O107     O      0.496620000000     0.483330000000     0.003070000000    -0.450822   
O108     O      0.529410000000     0.551550000000     0.978810000000    -0.449402   
O109     O      0.564880000000     0.551880000000     0.976320000000    -0.450869   
O110     O      0.532090000000     0.483670000000     0.000560000000    -0.449412   
O111     O      0.543130000000     0.509700000000     0.939480000000    -0.450366   
O112     O      0.553950000000     0.526100000000     0.037250000000    -0.450139   
O113     O      0.185340000000     0.858670000000     0.372890000000    -0.450434   
O114     O      0.174530000000     0.842280000000     0.275130000000    -0.45052    
O115     O      0.163630000000     0.816480000000     0.336040000000    -0.451227   
O116     O      0.196350000000     0.884700000000     0.311830000000    -0.449725   
O117     O      0.231840000000     0.885090000000     0.309290000000    -0.450966   
O118     O      0.199120000000     0.816870000000     0.333540000000    -0.44957    
O119     O      0.210130000000     0.842890000000     0.272450000000    -0.450294   
O120     O      0.220950000000     0.859300000000     0.370210000000    -0.450239   
O121     O      0.011110000000     0.509980000000     0.439890000000    -0.451277   
O122     O      0.016550000000     0.526190000000     0.537690000000    -0.450556   
O123     O      0.031550000000     0.552100000000     0.476920000000    -0.450125   
O124     O      0.995990000000     0.483830000000     0.500830000000    -0.437908   
O125     O      0.030980000000     0.483230000000     0.503490000000    -0.448201   
O126     O      0.066540000000     0.551490000000     0.479610000000    -0.449583   
O127     O      0.051410000000     0.525340000000     0.540530000000    -0.450657   
O128     O      0.045980000000     0.509140000000     0.442710000000    -0.450353   
O129     O      0.852130000000     0.192100000000     0.707070000000    -0.450649   
O130     O      0.841520000000     0.175780000000     0.609290000000    -0.450734   
O131     O      0.830600000000     0.149950000000     0.670140000000    -0.450963   
O132     O      0.863160000000     0.218190000000     0.646080000000    -0.449625   
O133     O      0.898720000000     0.218710000000     0.643670000000    -0.45071    
O134     O      0.866160000000     0.150470000000     0.667740000000    -0.449463   
O135     O      0.877190000000     0.176550000000     0.606730000000    -0.450544   
O136     O      0.887800000000     0.192860000000     0.704510000000    -0.45022    
O137     O      0.683240000000     0.859340000000     0.870420000000    -0.450519   
O138     O      0.678000000000     0.843440000000     0.772520000000    -0.450544   
O139     O      0.662650000000     0.817100000000     0.833250000000    -0.449682   
O140     O      0.698460000000     0.885430000000     0.809850000000    -0.451086   
O141     O      0.733380000000     0.884690000000     0.812610000000    -0.44961    
O142     O      0.697570000000     0.816350000000     0.836020000000    -0.450966   
O143     O      0.712800000000     0.842460000000     0.775440000000    -0.450319   
O144     O      0.718040000000     0.858360000000     0.873340000000    -0.450375   


