data_structure

_audit_creation_method RASPA-1.0
_audit_creation_date 2023-6-5
_audit_author_name 'Poobodin Mano'

_cell_length_a    63.0177
_cell_length_b    62.9429
_cell_length_c    38.0241
_cell_angle_alpha 89.9505
_cell_angle_beta  90.0492
_cell_angle_gamma 119.912
_cell_volume      130732

_symmetry_cell_setting          triclinic
_symmetry_space_group_name_Hall 'P 1'
_symmetry_space_group_name_H-M  'P 1'
_symmetry_Int_Tables_number     1

_symmetry_equiv_pos_as_xyz 'x,y,z'

loop_
_atom_site_label
_atom_site_type_symbol
_atom_site_fract_x
_atom_site_fract_y
_atom_site_fract_z
_atom_site_charge
C1       C      0.842580000000     0.664410000000     0.573640000000     0.435081   
C2       C      0.820790000000     0.662400000000     0.703670000000     0.433835   
C3       C      0.786370000000     0.641490000000     0.621410000000     0.433771   
C4       C      0.876990000000     0.685310000000     0.656000000000     0.44323    
C5       C      0.154050000000     0.822010000000     0.869200000000     0.446846   
C6       C      0.176100000000     0.834890000000     0.738420000000     0.444161   
C7       C      0.210620000000     0.852040000000     0.821010000000     0.434203   
C8       C      0.120010000000     0.805110000000     0.786790000000     0.434598   
C9       C      0.510340000000     0.998100000000     0.902530000000     0.443396   
C10      C      0.488210000000     0.992960000000     0.033030000000     0.446871   
C11      C      0.454140000000     0.974750000000     0.950330000000     0.444205   
C12      C      0.544710000000     0.016610000000     0.985240000000     0.443229   
C13      C      0.154210000000     0.325680000000     0.369470000000     0.435711   
C14      C      0.176020000000     0.328440000000     0.239390000000     0.434272   
C15      C      0.210600000000     0.349250000000     0.321510000000     0.443319   
C16      C      0.119910000000     0.305020000000     0.287340000000     0.434372   
C17      C      0.844850000000     0.167500000000     0.070460000000     0.434963   
C18      C      0.820360000000     0.151100000000     0.200230000000     0.445627   
C19      C      0.787550000000     0.135280000000     0.116400000000     0.435133   
C20      C      0.877500000000     0.183250000000     0.154170000000     0.443888   
C21      C      0.487410000000     0.487310000000     0.536150000000     0.446445   
C22      C      0.509670000000     0.503010000000     0.405720000000     0.435895   
C23      C      0.543890000000     0.517730000000     0.488430000000     0.443117   
C24      C      0.453320000000     0.472640000000     0.453550000000     0.435375   
C25      C      0.155120000000     0.332230000000     0.739070000000     0.444246   
C26      C      0.169500000000     0.324320000000     0.869790000000     0.446913   
C27      C      0.184490000000     0.305130000000     0.787430000000     0.444528   
C28      C      0.139960000000     0.351480000000     0.821410000000     0.444835   
C29      C      0.327720000000     0.171700000000     0.570900000000     0.446668   
C30      C      0.334850000000     0.157070000000     0.701730000000     0.445086   
C31      C      0.354320000000     0.142010000000     0.619500000000     0.434579   
C32      C      0.308110000000     0.186610000000     0.653110000000     0.436946   
C33      C      0.998470000000     0.509730000000     0.903230000000     0.445335   
C34      C      0.000240000000     0.489350000000     0.033210000000     0.433654   
C35      C      0.020170000000     0.475140000000     0.950800000000     0.435072   
C36      C      0.978540000000     0.523980000000     0.985830000000     0.435346   
C37      C      0.662890000000     0.819150000000     0.367750000000     0.446535   
C38      C      0.658080000000     0.835040000000     0.236840000000     0.436185   
C39      C      0.638780000000     0.850930000000     0.318430000000     0.444692   
C40      C      0.682440000000     0.803500000000     0.286160000000     0.436043   
C41      C      0.822540000000     0.666090000000     0.073540000000     0.445836   
C42      C      0.841070000000     0.662400000000     0.203890000000     0.444422   
C43      C      0.855720000000     0.642820000000     0.121430000000     0.44485    
C44      C      0.807930000000     0.685710000000     0.156250000000     0.444996   
C45      C      0.508450000000     0.997560000000     0.532740000000     0.434249   
C46      C      0.488770000000     0.999990000000     0.402720000000     0.435166   
C47      C      0.476270000000     0.021840000000     0.485040000000     0.444166   
C48      C      0.520910000000     0.975770000000     0.450530000000     0.434793   
C49      C      0.332940000000     0.172400000000     0.201290000000     0.435364   
C50      C      0.325270000000     0.150380000000     0.070750000000     0.436046   
C51      C      0.304980000000     0.116090000000     0.153150000000     0.435154   
C52      C      0.353370000000     0.206780000000     0.118980000000     0.444251   
C53      C      0.488140000000     0.484650000000     0.905740000000     0.435952   
C54      C      0.501230000000     0.505640000000     0.036750000000     0.444162   
C55      C      0.516080000000     0.540690000000     0.954790000000     0.444196   
C56      C      0.473300000000     0.449710000000     0.987560000000     0.434008   
C57      C      0.166550000000     0.838830000000     0.369450000000     0.434399   
C58      C      0.149020000000     0.818370000000     0.238790000000     0.436033   
C59      C      0.134280000000     0.783060000000     0.320320000000     0.443812   
C60      C      0.181400000000     0.874180000000     0.287990000000     0.443672   
C61      C      0.992940000000     0.483660000000     0.402950000000     0.44858    
C62      C      0.997870000000     0.506150000000     0.533200000000     0.435281   
C63      C      0.015070000000     0.540010000000     0.450400000000     0.43393    
C64      C      0.975720000000     0.449710000000     0.485440000000     0.448638   
C65      C      0.846380000000     0.171120000000     0.700440000000     0.445003   
C66      C      0.826090000000     0.150880000000     0.570050000000     0.43458    
C67      C      0.812120000000     0.115590000000     0.651500000000     0.434202   
C68      C      0.860500000000     0.206480000000     0.619050000000     0.436292   
C69      C      0.656890000000     0.816840000000     0.737290000000     0.435201   
C70      C      0.666140000000     0.839240000000     0.867850000000     0.445516   
C71      C      0.684710000000     0.873350000000     0.785110000000     0.444273   
C72      C      0.638120000000     0.782720000000     0.819930000000     0.435547   
C73      C      0.698060000000     0.934590000000     0.755260000000    -0.166632   
C74      C      0.811360000000     0.078440000000     0.666340000000     0.0744613  
C75      C      0.774990000000     0.080700000000     0.670160000000     0.0749067  
C76      C      0.799150000000     0.054520000000     0.679420000000    -0.0939302  
C77      C      0.765700000000     0.999950000000     0.691260000000    -0.0378576  
C78      C      0.753510000000     0.976440000000     0.705890000000    -0.0297032  
C79      C      0.761300000000     0.018410000000     0.703800000000    -0.00475028 
C80      C      0.762220000000     0.056800000000     0.683240000000    -0.0939659  
C81      C      0.736580000000     0.970850000000     0.733320000000    -0.0191419  
C82      C      0.735040000000     0.932410000000     0.754880000000    -0.113658   
C83      C      0.732250000000     0.989320000000     0.745950000000    -0.0291709  
C84      C      0.721880000000     0.908520000000     0.767870000000     0.0847326  
C85      C      0.685220000000     0.910510000000     0.767900000000     0.244933   
C86      C      0.744480000000     0.012820000000     0.731410000000    -0.0376741  
C87      C      0.774340000000     0.043480000000     0.688450000000     0.0497622  
C88      C      0.723110000000     0.945690000000     0.748180000000     0.0821558  
C89      C      0.930220000000     0.385120000000     0.502530000000    -0.16542    
C90      C      0.894940000000     0.239590000000     0.591190000000     0.076254   
C91      C      0.863610000000     0.245640000000     0.614870000000     0.0761703  
C92      C      0.906970000000     0.263470000000     0.577900000000    -0.092424   
C93      C      0.934800000000     0.317510000000     0.561450000000    -0.0373769  
C94      C      0.945820000000     0.340850000000     0.546230000000    -0.028683   
C95      C      0.909480000000     0.304490000000     0.568490000000    -0.00348273 
C96      C      0.875650000000     0.269900000000     0.603190000000    -0.0928908  
C97      C      0.932080000000     0.352360000000     0.538620000000    -0.0177058  
C98      C      0.968650000000     0.394580000000     0.528660000000    -0.111953   
C99      C      0.906880000000     0.339550000000     0.546420000000    -0.0283471  
C100     C      0.979050000000     0.418170000000     0.514570000000     0.0862779  
C101     C      0.940810000000     0.409210000000     0.490110000000     0.246604   
C102     C      0.895710000000     0.315900000000     0.560400000000    -0.0374695  
C103     C      0.897360000000     0.279100000000     0.583570000000     0.0495443  
C104     C      0.943830000000     0.377580000000     0.522990000000     0.0814725  
C105     C      0.120730000000     0.721200000000     0.347120000000    -0.166487   
C106     C      0.011510000000     0.574370000000     0.432010000000     0.0733543  
C107     C      0.050450000000     0.577190000000     0.433440000000     0.0749801  
C108     C      0.021940000000     0.598150000000     0.418450000000    -0.0936031  
C109     C      0.052570000000     0.653860000000     0.407940000000    -0.0381693  
C110     C      0.064270000000     0.677590000000     0.393970000000    -0.0294506  
C111     C      0.058540000000     0.636400000000     0.395860000000    -0.00475923 
C112     C      0.061400000000     0.600870000000     0.419730000000    -0.0943602  
C113     C      0.082090000000     0.684310000000     0.367500000000    -0.0190275  
C114     C      0.083780000000     0.723410000000     0.348520000000    -0.113344   
C115     C      0.087520000000     0.666580000000     0.354820000000    -0.0291899  
C116     C      0.097050000000     0.747650000000     0.336830000000     0.0845787  
C117     C      0.133630000000     0.745530000000     0.335570000000     0.245139   
C118     C      0.075940000000     0.642950000000     0.368890000000    -0.0378515  
C119     C      0.047110000000     0.611540000000     0.411670000000     0.0497387  
C120     C      0.095610000000     0.709900000000     0.354010000000     0.0819815  
C121     C      0.526540000000     0.601060000000     0.925410000000    -0.1658     
C122     C      0.638200000000     0.746430000000     0.837520000000     0.0761615  
C123     C      0.600940000000     0.747120000000     0.836640000000     0.0757742  
C124     C      0.626130000000     0.722490000000     0.850520000000    -0.0934772  
C125     C      0.593310000000     0.667560000000     0.860340000000    -0.037875   
C126     C      0.581460000000     0.644060000000     0.874940000000    -0.0289026  
C127     C      0.587990000000     0.685540000000     0.872200000000    -0.00435053 
C128     C      0.588310000000     0.723220000000     0.849770000000    -0.0938413  
C129     C      0.564050000000     0.637980000000     0.901830000000    -0.0188073  
C130     C      0.564390000000     0.600590000000     0.923860000000    -0.113608   
C131     C      0.558660000000     0.655930000000     0.913610000000    -0.0287385  
C132     C      0.552230000000     0.576750000000     0.937120000000     0.0850704  
C133     C      0.514770000000     0.577160000000     0.938910000000     0.245297   
C134     C      0.570480000000     0.679430000000     0.898940000000    -0.0375627  
C135     C      0.600930000000     0.710670000000     0.857150000000     0.0503302  
C136     C      0.551520000000     0.612950000000     0.917360000000     0.0823251  
C137     C      0.230440000000     0.934530000000     0.257680000000    -0.166561   
C138     C      0.267470000000     0.080870000000     0.170020000000     0.0749657  
C139     C      0.304420000000     0.079590000000     0.171150000000     0.0753002  
C140     C      0.254600000000     0.057100000000     0.183660000000    -0.0937928  
C141     C      0.230310000000     0.002050000000     0.196310000000    -0.0378322  
C142     C      0.218300000000     0.978570000000     0.211050000000    -0.0289483  
C143     C      0.253940000000     0.019510000000     0.207580000000    -0.00444421 
C144     C      0.292140000000     0.055840000000     0.184720000000    -0.0938887  
C145     C      0.229680000000     0.972010000000     0.237340000000    -0.0190951  
C146     C      0.192400000000     0.934630000000     0.260210000000    -0.113903   
C147     C      0.253170000000     0.989550000000     0.248900000000    -0.0289158  
C148     C      0.181020000000     0.910650000000     0.273000000000     0.0845945  
C149     C      0.218600000000     0.910490000000     0.270530000000     0.245107   
C150     C      0.265140000000     0.013020000000     0.234250000000    -0.0378389  
C151     C      0.266990000000     0.044390000000     0.191640000000     0.049897   
C152     C      0.217340000000     0.946780000000     0.252070000000     0.0824127  
C153     C      0.403500000000     0.266950000000     0.089750000000    -0.165946   
C154     C      0.437170000000     0.413040000000     0.004160000000     0.0745956  
C155     C      0.475300000000     0.414090000000     0.003400000000     0.0747304  
C156     C      0.425470000000     0.388940000000     0.016480000000    -0.0940532  
C157     C      0.403820000000     0.333990000000     0.024770000000    -0.0379124  
C158     C      0.392120000000     0.310380000000     0.038980000000    -0.0288749  
C159     C      0.426920000000     0.351870000000     0.037180000000    -0.00446212 
C160     C      0.464180000000     0.390010000000     0.015870000000    -0.0938166  
C161     C      0.403210000000     0.304080000000     0.066030000000    -0.018956   
C162     C      0.365330000000     0.266770000000     0.087470000000    -0.113839   
C163     C      0.426430000000     0.321910000000     0.078240000000    -0.0288485  
C164     C      0.353530000000     0.242930000000     0.100720000000     0.0850806  
C165     C      0.391240000000     0.243050000000     0.103240000000     0.244604   
C166     C      0.438160000000     0.345530000000     0.063950000000    -0.0379424  
C167     C      0.439000000000     0.377190000000     0.022810000000     0.0498213  
C168     C      0.390550000000     0.278990000000     0.081370000000     0.0822275  
C169     C      0.646020000000     0.792370000000     0.456600000000    -0.167497   
C170     C      0.637720000000     0.813760000000     0.682080000000     0.0749936  
C171     C      0.672280000000     0.808280000000     0.685270000000     0.0751901  
C172     C      0.637580000000     0.812140000000     0.645460000000    -0.0950316  
C173     C      0.657450000000     0.828630000000     0.570850000000    -0.0382691  
C174     C      0.659710000000     0.829690000000     0.534310000000    -0.0294516  
C175     C      0.656760000000     0.809080000000     0.589630000000    -0.00524742 
C176     C      0.672380000000     0.806110000000     0.648740000000    -0.0948013  
C177     C      0.660920000000     0.811030000000     0.515820000000    -0.0202745  
C178     C      0.680360000000     0.833280000000     0.460190000000    -0.115124   
C179     C      0.659950000000     0.791310000000     0.534510000000    -0.0291766  
C180     C      0.680650000000     0.834710000000     0.423580000000     0.0853452  
C181     C      0.646290000000     0.794490000000     0.419920000000     0.245431   
C182     C      0.658160000000     0.790480000000     0.571220000000    -0.0382103  
C183     C      0.655270000000     0.808650000000     0.628440000000     0.0504198  
C184     C      0.662690000000     0.812090000000     0.477030000000     0.0831879  
C185     C      0.685000000000     0.844430000000     0.960570000000    -0.167917   
C186     C      0.675350000000     0.859350000000     0.185460000000     0.0762743  
C187     C      0.639400000000     0.820420000000     0.181000000000     0.0759756  
C188     C      0.676050000000     0.862150000000     0.148950000000    -0.0943181  
C189     C      0.662260000000     0.864770000000     0.070900000000    -0.038045   
C190     C      0.664160000000     0.865740000000     0.034190000000    -0.0293389  
C191     C      0.660460000000     0.844600000000     0.089350000000    -0.00506148 
C192     C      0.639830000000     0.822420000000     0.144440000000    -0.0948739  
C193     C      0.664890000000     0.846840000000     0.015620000000    -0.0198838  
C194     C      0.649990000000     0.849900000000     0.956020000000    -0.114278   
C195     C      0.663330000000     0.826820000000     0.034170000000    -0.0288341  
C196     C      0.650570000000     0.847750000000     0.919550000000     0.0859321  
C197     C      0.685550000000     0.842900000000     0.923930000000     0.245955   
C198     C      0.660920000000     0.825610000000     0.070680000000    -0.0377352  
C199     C      0.658490000000     0.843280000000     0.128080000000     0.0509679  
C200     C      0.666920000000     0.847550000000     0.976890000000     0.0836888  
C201     C      0.794020000000     0.733180000000     0.186080000000    -0.166884   
C202     C      0.681100000000     0.766400000000     0.269110000000     0.0759168  
C203     C      0.719140000000     0.803440000000     0.271540000000     0.0758996  
C204     C      0.692690000000     0.753780000000     0.257100000000    -0.0933717  
C205     C      0.719890000000     0.735670000000     0.211280000000    -0.0376233  
C206     C      0.732200000000     0.724260000000     0.197330000000    -0.0288316  
C207     C      0.730720000000     0.753480000000     0.237860000000    -0.00422674 
C208     C      0.731290000000     0.791430000000     0.259450000000    -0.0935983  
C209     C      0.755670000000     0.730510000000     0.209490000000    -0.0190825  
C210     C      0.757430000000     0.693780000000     0.187850000000    -0.113576   
C211     C      0.766360000000     0.748060000000     0.236330000000    -0.0286716  
C212     C      0.770720000000     0.683220000000     0.174690000000     0.0854309  
C213     C      0.806940000000     0.722180000000     0.172910000000     0.247146   
C214     C      0.754020000000     0.759360000000     0.250410000000    -0.0375871  
C215     C      0.718080000000     0.766320000000     0.251810000000     0.0502002  
C216     C      0.769140000000     0.718990000000     0.194130000000     0.0831956  
C217     C      0.627910000000     0.900680000000     0.347040000000    -0.167142   
C218     C      0.519690000000     0.938410000000     0.435830000000     0.0750348  
C219     C      0.556940000000     0.976080000000     0.430760000000     0.0750986  
C220     C      0.530820000000     0.925690000000     0.422560000000    -0.0940463  
C221     C      0.562070000000     0.902160000000     0.410370000000    -0.0379485  
C222     C      0.573250000000     0.889820000000     0.395830000000    -0.0295934  
C223     C      0.567480000000     0.925300000000     0.397540000000    -0.00470071 
C224     C      0.568670000000     0.963920000000     0.417520000000    -0.0937867  
C225     C      0.590180000000     0.900380000000     0.368230000000    -0.0193357  
C226     C      0.589920000000     0.862510000000     0.347030000000    -0.113852   
C227     C      0.595510000000     0.923430000000     0.355260000000    -0.0291577  
C228     C      0.602290000000     0.850820000000     0.334500000000     0.084592   
C229     C      0.639950000000     0.888500000000     0.334940000000     0.245091   
C230     C      0.584260000000     0.935720000000     0.369690000000    -0.0376704  
C231     C      0.555550000000     0.938450000000     0.412880000000     0.0499245  
C232     C      0.602760000000     0.887690000000     0.353690000000     0.0823848  
C233     C      0.019790000000     0.533980000000     0.814040000000    -0.167856   
C234     C      0.978110000000     0.506950000000     0.586200000000     0.0748348  
C235     C      0.020240000000     0.519080000000     0.586840000000     0.0748595  
C236     C      0.978270000000     0.509690000000     0.622700000000    -0.0937727  
C237     C      0.984200000000     0.524650000000     0.699260000000    -0.0360361  
C238     C      0.983740000000     0.524810000000     0.736060000000    -0.0308016  
C239     C      0.000210000000     0.518880000000     0.681150000000    -0.00670672 
C240     C      0.021210000000     0.522640000000     0.623160000000    -0.0946483  
C241     C      0.999680000000     0.519840000000     0.755510000000    -0.0184633  
C242     C      0.977470000000     0.502510000000     0.811850000000    -0.114426   
C243     C      0.016010000000     0.514620000000     0.737730000000    -0.0307076  
C244     C      0.977720000000     0.500140000000     0.848330000000     0.0851455  
C245     C      0.019380000000     0.531740000000     0.850710000000     0.244307   
C246     C      0.016090000000     0.513860000000     0.701040000000    -0.0361793  
C247     C      0.999940000000     0.517340000000     0.641890000000     0.0512108  
C248     C      0.998830000000     0.519130000000     0.794340000000     0.0831787  
C249     C      0.971200000000     0.467750000000     0.311610000000    -0.165602   
C250     C      0.020320000000     0.498700000000     0.088880000000     0.0752998  
C251     C      0.979140000000     0.466520000000     0.084100000000     0.076028   
C252     C      0.019770000000     0.495320000000     0.125280000000    -0.0952593  
C253     C      0.012450000000     0.471090000000     0.199790000000    -0.0388433  
C254     C      0.011030000000     0.470020000000     0.236550000000    -0.0292646  
C255     C      0.996390000000     0.475790000000     0.180160000000    -0.00426117 
C256     C      0.977790000000     0.463070000000     0.120480000000    -0.0951094  
C257     C      0.993900000000     0.474250000000     0.254470000000    -0.0179381  
C258     C      0.014430000000     0.482580000000     0.313890000000    -0.113048   
C259     C      0.977900000000     0.479010000000     0.234410000000    -0.0283038  
C260     C      0.013600000000     0.484350000000     0.350420000000     0.0856052  
C261     C      0.971030000000     0.470500000000     0.348120000000     0.246931   
C262     C      0.978960000000     0.479480000000     0.197740000000    -0.0381206  
C263     C      0.998170000000     0.477730000000     0.141430000000     0.0512797  
C264     C      0.993140000000     0.474570000000     0.293770000000     0.0824776  
C265     C      0.869870000000     0.595230000000     0.093140000000    -0.165904   
C266     C      0.980970000000     0.561130000000     0.005400000000     0.075771   
C267     C      0.942400000000     0.524750000000     0.001640000000     0.0753417  
C268     C      0.969920000000     0.573870000000     0.019040000000    -0.0944366  
C269     C      0.938120000000     0.597760000000     0.029480000000    -0.0379198  
C270     C      0.926090000000     0.609270000000     0.044070000000    -0.0285184  
C271     C      0.932590000000     0.574320000000     0.040930000000    -0.0045497  
C272     C      0.930820000000     0.536840000000     0.015520000000    -0.0946587  
C273     C      0.908430000000     0.597680000000     0.070640000000    -0.0187855  
C274     C      0.906360000000     0.634670000000     0.090730000000    -0.113127   
C275     C      0.903400000000     0.574460000000     0.082590000000    -0.0286795  
C276     C      0.892990000000     0.645290000000     0.103360000000     0.0851669  
C277     C      0.856940000000     0.606270000000     0.106130000000     0.245849   
C278     C      0.915250000000     0.562890000000     0.067800000000    -0.037912   
C279     C      0.944620000000     0.561600000000     0.024770000000     0.0504205  
C280     C      0.894790000000     0.609360000000     0.085160000000     0.0825778  
C281     C      0.352470000000     0.169560000000     0.795020000000    -0.167662   
C282     C      0.306610000000     0.147500000000     0.015190000000     0.0760872  
C283     C      0.341100000000     0.141920000000     0.019040000000     0.0765176  
C284     C      0.306810000000     0.146060000000     0.978590000000    -0.094922   
C285     C      0.327790000000     0.125020000000     0.904260000000    -0.0380519  
C286     C      0.329950000000     0.126340000000     0.867590000000    -0.0294082  
C287     C      0.326610000000     0.143580000000     0.923130000000    -0.00498977 
C288     C      0.341530000000     0.139930000000     0.982490000000    -0.0940851  
C289     C      0.331540000000     0.146530000000     0.849430000000    -0.0198619  
C290     C      0.317170000000     0.129420000000     0.789300000000    -0.114656   
C291     C      0.330530000000     0.165140000000     0.868380000000    -0.0288833  
C292     C      0.318280000000     0.132560000000     0.752870000000     0.0851196  
C293     C      0.353530000000     0.172040000000     0.758410000000     0.245437   
C294     C      0.327880000000     0.163570000000     0.904860000000    -0.0374628  
C295     C      0.324650000000     0.142650000000     0.961890000000     0.0510661  
C296     C      0.333990000000     0.148320000000     0.810750000000     0.0833323  
C297     C      0.342960000000     0.197930000000     0.481570000000    -0.167139   
C298     C      0.351500000000     0.175310000000     0.256960000000     0.0751781  
C299     C      0.317050000000     0.180920000000     0.252850000000     0.0752547  
C300     C      0.351320000000     0.176930000000     0.293540000000    -0.0949034  
C301     C      0.331240000000     0.160720000000     0.367960000000    -0.037967   
C302     C      0.329080000000     0.159870000000     0.404510000000    -0.0293723  
C303     C      0.331790000000     0.180100000000     0.348910000000    -0.00515828 
C304     C      0.316620000000     0.183060000000     0.289370000000    -0.0946847  
C305     C      0.327810000000     0.178580000000     0.422750000000    -0.019902   
C306     C      0.309230000000     0.156630000000     0.478940000000    -0.114744   
C307     C      0.328530000000     0.198090000000     0.403780000000    -0.0290329  
C308     C      0.309420000000     0.155490000000     0.515550000000     0.0859273  
C309     C      0.343170000000     0.196110000000     0.518270000000     0.245846   
C310     C      0.330240000000     0.198710000000     0.367070000000    -0.0379174  
C311     C      0.333510000000     0.180460000000     0.310110000000     0.0505755  
C312     C      0.326370000000     0.177860000000     0.461590000000     0.0833207  
C313     C      0.464670000000     0.071130000000     0.513630000000    -0.166347   
C314     C      0.353870000000     0.105400000000     0.602410000000     0.0746211  
C315     C      0.391320000000     0.143140000000     0.602840000000     0.0745347  
C316     C      0.365700000000     0.093290000000     0.589480000000    -0.0943982  
C317     C      0.398390000000     0.070900000000     0.579720000000    -0.0381823  
C318     C      0.410100000000     0.059110000000     0.565090000000    -0.0295317  
C319     C      0.403490000000     0.094010000000     0.567340000000    -0.00482493 
C320     C      0.403700000000     0.131620000000     0.589700000000    -0.0942372  
C321     C      0.427100000000     0.070110000000     0.537620000000    -0.019134   
C322     C      0.427470000000     0.032350000000     0.517220000000    -0.113418   
C323     C      0.432110000000     0.093210000000     0.525180000000    -0.0291039  
C324     C      0.439960000000     0.020940000000     0.504160000000     0.0848903  
C325     C      0.476820000000     0.059260000000     0.500680000000     0.244889   
C326     C      0.420490000000     0.105040000000     0.539920000000    -0.0379241  
C327     C      0.390850000000     0.106440000000     0.582560000000     0.0498214  
C328     C      0.439850000000     0.057720000000     0.522450000000     0.0819886  
C329     C      0.128120000000     0.400710000000     0.849420000000    -0.166128   
C330     C      0.017710000000     0.437920000000     0.931610000000     0.0747819  
C331     C      0.056350000000     0.474190000000     0.935860000000     0.0764623  
C332     C      0.028790000000     0.425030000000     0.918680000000    -0.0934717  
C333     C      0.059960000000     0.400490000000     0.910260000000    -0.0379978  
C334     C      0.071750000000     0.388520000000     0.896470000000    -0.0285151  
C335     C      0.066240000000     0.424100000000     0.898630000000    -0.00414862 
C336     C      0.067970000000     0.461920000000     0.922740000000    -0.0936058  
C337     C      0.089960000000     0.399820000000     0.870550000000    -0.0188807  
C338     C      0.090590000000     0.362120000000     0.850470000000    -0.113301   
C339     C      0.095930000000     0.423310000000     0.858590000000    -0.0284081  
C340     C      0.103290000000     0.350700000000     0.838280000000     0.0850536  
C341     C      0.140400000000     0.388860000000     0.836860000000     0.245598   
C342     C      0.084270000000     0.435330000000     0.872550000000    -0.0378742  
C343     C      0.054170000000     0.437120000000     0.913690000000     0.0503704  
C344     C      0.103000000000     0.387390000000     0.856520000000     0.0824854  
C345     C      0.196180000000     0.256120000000     0.757750000000    -0.16623    
C346     C      0.308400000000     0.223050000000     0.670810000000     0.0775736  
C347     C      0.270950000000     0.185340000000     0.669100000000     0.0763575  
C348     C      0.296410000000     0.235010000000     0.683750000000    -0.0931093  
C349     C      0.263660000000     0.257350000000     0.693550000000    -0.0376472  
C350     C      0.251680000000     0.268890000000     0.708140000000    -0.0285057  
C351     C      0.258290000000     0.233990000000     0.705200000000    -0.0040357  
C352     C      0.258400000000     0.196710000000     0.682170000000    -0.0937059  
C353     C      0.234120000000     0.257370000000     0.734800000000    -0.0187619  
C354     C      0.233660000000     0.294770000000     0.756620000000    -0.113458   
C355     C      0.228810000000     0.234030000000     0.746490000000    -0.0285388  
C356     C      0.221080000000     0.306040000000     0.769790000000     0.0852521  
C357     C      0.184000000000     0.267840000000     0.771180000000     0.246054   
C358     C      0.240730000000     0.222460000000     0.731820000000    -0.0376553  
C359     C      0.271160000000     0.221780000000     0.689990000000     0.0508141  
C360     C      0.221200000000     0.269560000000     0.750030000000     0.082634   
C361     C      0.476030000000     0.460510000000     0.625160000000    -0.167321   
C362     C      0.504240000000     0.481800000000     0.850480000000     0.0760544  
C363     C      0.464300000000     0.476540000000     0.853620000000     0.0766616  
C364     C      0.502790000000     0.480300000000     0.813870000000    -0.0947834  
C365     C      0.499690000000     0.497020000000     0.739390000000    -0.0378335  
C366     C      0.498810000000     0.498030000000     0.702810000000    -0.0292649  
C367     C      0.480740000000     0.477520000000     0.757990000000    -0.0048482  
C368     C      0.462070000000     0.474510000000     0.817050000000    -0.0940338  
C369     C      0.479150000000     0.479350000000     0.684090000000    -0.0200059  
C370     C      0.482730000000     0.501540000000     0.628070000000    -0.114944   
C371     C      0.460260000000     0.459710000000     0.702610000000    -0.0287989  
C372     C      0.484450000000     0.502960000000     0.591510000000     0.0857105  
C373     C      0.478450000000     0.462610000000     0.588510000000     0.245377   
C374     C      0.460910000000     0.458940000000     0.739360000000    -0.0378751  
C375     C      0.481690000000     0.477000000000     0.796800000000     0.0510808  
C376     C      0.478860000000     0.480310000000     0.645260000000     0.0833823  
C377     C      0.487880000000     0.509450000000     0.130110000000    -0.16789    
C378     C      0.516980000000     0.527240000000     0.354160000000     0.0758625  
C379     C      0.513230000000     0.487910000000     0.349990000000     0.0763279  
C380     C      0.518650000000     0.529740000000     0.317600000000    -0.094383   
C381     C      0.533110000000     0.531700000000     0.239090000000    -0.0382796  
C382     C      0.531440000000     0.532440000000     0.202440000000    -0.0287693  
C383     C      0.515350000000     0.511500000000     0.258120000000    -0.00483831 
C384     C      0.514390000000     0.489620000000     0.313390000000    -0.0947175  
C385     C      0.511700000000     0.513270000000     0.184490000000    -0.0202049  
C386     C      0.529030000000     0.516960000000     0.124320000000    -0.114802   
C387     C      0.493870000000     0.493210000000     0.203620000000    -0.0287565  
C388     C      0.525880000000     0.514730000000     0.087920000000     0.085498   
C389     C      0.485260000000     0.507560000000     0.093520000000     0.245462   
C390     C      0.495780000000     0.492240000000     0.240050000000    -0.0380837  
C391     C      0.516670000000     0.510510000000     0.296850000000     0.0508276  
C392     C      0.509700000000     0.513710000000     0.145800000000     0.0835637  
C393     C      0.875280000000     0.180950000000     0.788020000000    -0.165121   
C394     C      0.854460000000     0.192770000000     0.019590000000     0.0758443  
C395     C      0.850990000000     0.153620000000     0.015150000000     0.0753446  
C396     C      0.858460000000     0.196370000000     0.983410000000    -0.0930384  
C397     C      0.849270000000     0.192480000000     0.905290000000    -0.0375519  
C398     C      0.849260000000     0.193320000000     0.868590000000    -0.0289958  
C399     C      0.859720000000     0.180350000000     0.923180000000    -0.00396184 
C400     C      0.854510000000     0.156440000000     0.978800000000    -0.0929882  
C401     C      0.859330000000     0.181700000000     0.848620000000    -0.0184005  
C402     C      0.835840000000     0.177780000000     0.793390000000    -0.113196   
C403     C      0.870440000000     0.170180000000     0.866460000000    -0.0287635  
C404     C      0.833180000000     0.175420000000     0.757000000000     0.0853645  
C405     C      0.871960000000     0.178100000000     0.751460000000     0.244522   
C406     C      0.870760000000     0.169650000000     0.903230000000    -0.0376208  
C407     C      0.857970000000     0.177880000000     0.962280000000     0.0496812  
C408     C      0.856980000000     0.180420000000     0.809530000000     0.0815759  
C409     C      0.804460000000     0.158410000000     0.290990000000    -0.165705   
C410     C      0.834820000000     0.139910000000     0.514140000000     0.0749734  
C411     C      0.803690000000     0.150450000000     0.519310000000     0.0751986  
C412     C      0.831260000000     0.137200000000     0.477780000000    -0.0944313  
C413     C      0.806430000000     0.120520000000     0.403850000000    -0.0385115  
C414     C      0.805250000000     0.120640000000     0.367100000000    -0.0288783  
C415     C      0.811840000000     0.141620000000     0.423110000000    -0.00474028 
C416     C      0.800090000000     0.148490000000     0.482940000000    -0.0946555  
C417     C      0.810080000000     0.142090000000     0.348780000000    -0.0186077  
C418     C      0.818190000000     0.129030000000     0.289980000000    -0.112557   
C419     C      0.815400000000     0.163150000000     0.368460000000    -0.0283734  
C420     C      0.820190000000     0.131310000000     0.253450000000     0.0850032  
C421     C      0.807400000000     0.160950000000     0.254430000000     0.245266   
C422     C      0.815990000000     0.162810000000     0.405170000000    -0.0382652  
C423     C      0.814100000000     0.142000000000     0.461820000000     0.0502877  
C424     C      0.810600000000     0.142930000000     0.309470000000     0.0813341  
C425     C      0.167100000000     0.350780000000     0.645920000000    -0.165822   
C426     C      0.148740000000     0.307480000000     0.426060000000     0.0761621  
C427     C      0.146260000000     0.343600000000     0.419300000000     0.0753969  
C428     C      0.145820000000     0.307950000000     0.462370000000    -0.0931714  
C429     C      0.129950000000     0.307110000000     0.537400000000    -0.0374092  
C430     C      0.130610000000     0.308630000000     0.574080000000    -0.0290941  
C431     C      0.141770000000     0.328420000000     0.516650000000    -0.00419353 
C432     C      0.142980000000     0.344460000000     0.455510000000    -0.0934971  
C433     C      0.142840000000     0.331520000000     0.591040000000    -0.0182497  
C434     C      0.126670000000     0.316060000000     0.651820000000    -0.112573   
C435     C      0.153740000000     0.352870000000     0.570280000000    -0.0290611  
C436     C      0.130240000000     0.316530000000     0.688110000000     0.0860768  
C437     C      0.170180000000     0.350950000000     0.682390000000     0.2456     
C438     C      0.153350000000     0.351340000000     0.533600000000    -0.0372465  
C439     C      0.143170000000     0.326750000000     0.477700000000     0.0500334  
C440     C      0.145370000000     0.333020000000     0.630080000000     0.0821385  
C441     C      0.161980000000     0.301080000000     0.960620000000    -0.165788   
C442     C      0.185700000000     0.348560000000     0.183750000000     0.0751086  
C443     C      0.177250000000     0.307450000000     0.188060000000     0.0748357  
C444     C      0.187800000000     0.347980000000     0.147230000000    -0.0947996  
C445     C      0.203840000000     0.339370000000     0.072030000000    -0.0384393  
C446     C      0.202700000000     0.338130000000     0.035290000000    -0.0287967  
C447     C      0.182960000000     0.324570000000     0.092170000000    -0.00501707 
C448     C      0.178620000000     0.306060000000     0.151560000000    -0.0951916  
C449     C      0.180470000000     0.322520000000     0.017950000000    -0.0185182  
C450     C      0.193020000000     0.343580000000     0.959070000000    -0.112108   
C451     C      0.159630000000     0.307680000000     0.038540000000    -0.028386   
C452     C      0.190170000000     0.343440000000     0.922670000000     0.0862335  
C453     C      0.158930000000     0.301650000000     0.924200000000     0.245629   
C454     C      0.160960000000     0.308510000000     0.075210000000    -0.0382367  
C455     C      0.183670000000     0.326390000000     0.130850000000     0.050496   
C456     C      0.178680000000     0.322310000000     0.978750000000     0.0817341  
C457     C      0.937210000000     0.232940000000     0.185580000000    -0.166299   
C458     C      0.083290000000     0.268130000000     0.272850000000     0.0748566  
C459     C      0.084550000000     0.306300000000     0.268130000000     0.0748321  
C460     C      0.059350000000     0.255910000000     0.259920000000    -0.0939707  
C461     C      0.015890000000     0.238270000000     0.210190000000    -0.0391528  
C462     C      0.992310000000     0.226540000000     0.195910000000    -0.0278305  
C463     C      0.022600000000     0.256550000000     0.235910000000    -0.00387028 
C464     C      0.060560000000     0.294630000000     0.255370000000    -0.0936833  
C465     C      0.974810000000     0.232720000000     0.207160000000    -0.0195341  
C466     C      0.937560000000     0.194970000000     0.184820000000    -0.113362   
C467     C      0.981550000000     0.250990000000     0.232990000000    -0.0275455  
C468     C      0.913730000000     0.183300000000     0.171590000000     0.0846864  
C469     C      0.913200000000     0.220750000000     0.172670000000     0.244768   
C470     C      0.005190000000     0.262820000000     0.247100000000    -0.039252   
C471     C      0.047760000000     0.269170000000     0.250750000000     0.0495963  
C472     C      0.949590000000     0.220070000000     0.192240000000     0.0822206  
C473     C      0.271140000000     0.361060000000     0.352040000000    -0.166004   
C474     C      0.417130000000     0.473370000000     0.437210000000     0.0754628  
C475     C      0.417610000000     0.435970000000     0.435700000000     0.0760495  
C476     C      0.393220000000     0.461680000000     0.424100000000    -0.0932937  
C477     C      0.338310000000     0.429490000000     0.412880000000    -0.0376241  
C478     C      0.314690000000     0.417450000000     0.398690000000    -0.0287655  
C479     C      0.356140000000     0.423910000000     0.401140000000    -0.00415165 
C480     C      0.393710000000     0.423710000000     0.422660000000    -0.0931676  
C481     C      0.308310000000     0.399520000000     0.372480000000    -0.0188559  
C482     C      0.270560000000     0.398900000000     0.350020000000    -0.113472   
C483     C      0.326150000000     0.394030000000     0.360610000000    -0.0288767  
C484     C      0.246630000000     0.386150000000     0.337190000000     0.0846793  
C485     C      0.247130000000     0.348690000000     0.339130000000     0.244668   
C486     C      0.349770000000     0.406110000000     0.374720000000    -0.0376185  
C487     C      0.381270000000     0.436580000000     0.416290000000     0.0500635  
C488     C      0.283060000000     0.386360000000     0.357910000000     0.082175   
C489     C      0.513520000000     0.979070000000     0.811920000000    -0.164869   
C490     C      0.531460000000     0.018220000000     0.583760000000     0.0746016  
C491     C      0.498360000000     0.977450000000     0.588370000000     0.0749151  
C492     C      0.534820000000     0.019410000000     0.620190000000    -0.0951727  
C493     C      0.516610000000     0.016900000000     0.697920000000    -0.0381586  
C494     C      0.516620000000     0.017170000000     0.734660000000    -0.0293407  
C495     C      0.521650000000     0.000580000000     0.679680000000    -0.0053985  
C496     C      0.501640000000     0.977810000000     0.624750000000    -0.0948437  
C497     C      0.522220000000     0.001480000000     0.754030000000    -0.0183266  
C498     C      0.525950000000     0.021860000000     0.812630000000    -0.112063   
C499     C      0.528040000000     0.985690000000     0.735390000000    -0.0289416  
C500     C      0.522550000000     0.020460000000     0.849010000000     0.0854002  
C501     C      0.510680000000     0.978260000000     0.848520000000     0.244844   
C502     C      0.527430000000     0.985030000000     0.698610000000    -0.0380714  
C503     C      0.519680000000     0.999110000000     0.640990000000     0.0505037  
C504     C      0.520900000000     0.000890000000     0.793320000000     0.0810017  
C505     C      0.471720000000     0.970860000000     0.124200000000    -0.165612   
C506     C      0.499170000000     0.019790000000     0.346840000000     0.0758607  
C507     C      0.465860000000     0.979160000000     0.351730000000     0.0755033  
C508     C      0.496210000000     0.019150000000     0.310360000000    -0.0943035  
C509     C      0.472140000000     0.011630000000     0.235300000000    -0.0383386  
C510     C      0.471740000000     0.010200000000     0.198550000000    -0.0285438  
C511     C      0.476790000000     0.995760000000     0.255530000000    -0.00460585 
C512     C      0.462800000000     0.977690000000     0.315250000000    -0.0947055  
C513     C      0.476630000000     0.993290000000     0.181250000000    -0.0183945  
C514     C      0.485840000000     0.014000000000     0.121930000000    -0.112337   
C515     C      0.481260000000     0.977430000000     0.201930000000    -0.0282322  
C516     C      0.488190000000     0.013340000000     0.085490000000     0.0860062  
C517     C      0.475030000000     0.970870000000     0.087780000000     0.246222   
C518     C      0.481050000000     0.978480000000     0.238600000000    -0.0381578  
C519     C      0.478250000000     0.997730000000     0.294240000000     0.050686   
C520     C      0.477800000000     0.992670000000     0.142000000000     0.0819712  
C521     C      0.606710000000     0.063870000000     0.012750000000    -0.165998   
C522     C      0.752480000000     0.097960000000     0.098340000000     0.0755255  
C523     C      0.751210000000     0.134960000000     0.098350000000     0.0764803  
C524     C      0.728680000000     0.085200000000     0.084830000000    -0.0934369  
C525     C      0.673240000000     0.061600000000     0.074190000000    -0.0376362  
C526     C      0.649510000000     0.049980000000     0.060270000000    -0.0292412  
C527     C      0.691050000000     0.084780000000     0.061830000000    -0.00435178 
C528     C      0.727490000000     0.122820000000     0.084680000000    -0.0934715  
C529     C      0.643100000000     0.061250000000     0.033560000000    -0.0185506  
C530     C      0.603620000000     0.024300000000     0.014730000000    -0.112349   
C531     C      0.661140000000     0.084170000000     0.020660000000    -0.0288869  
C532     C      0.579490000000     0.013800000000     0.002750000000     0.0845649  
C533     C      0.582480000000     0.052920000000     0.000950000000     0.245138   
C534     C      0.684780000000     0.095800000000     0.034670000000    -0.0375868  
C535     C      0.716000000000     0.097690000000     0.077420000000     0.0503069  
C536     C      0.617550000000     0.049620000000     0.020000000000     0.0818838  
C537     C      0.179760000000     0.820590000000     0.645440000000    -0.167718   
C538     C      0.191680000000     0.845900000000     0.419920000000     0.0743912  
C539     C      0.152550000000     0.842270000000     0.426130000000     0.0746939  
C540     C      0.195010000000     0.847810000000     0.456360000000    -0.0946812  
C541     C      0.198720000000     0.863690000000     0.534740000000    -0.0383505  
C542     C      0.200300000000     0.862740000000     0.571380000000    -0.0291437  
C543     C      0.178310000000     0.845330000000     0.516770000000    -0.00518215 
C544     C      0.155080000000     0.843630000000     0.462650000000    -0.0950783  
C545     C      0.181780000000     0.843100000000     0.590380000000    -0.0201237  
C546     C      0.185910000000     0.861360000000     0.650030000000    -0.114572   
C547     C      0.161550000000     0.824640000000     0.572300000000    -0.0290094  
C548     C      0.184190000000     0.858760000000     0.686550000000     0.0855313  
C549     C      0.178380000000     0.818540000000     0.682120000000     0.245507   
C550     C      0.159730000000     0.825860000000     0.535880000000    -0.0381704  
C551     C      0.176330000000     0.846070000000     0.478100000000     0.0501744  
C552     C      0.183030000000     0.841890000000     0.629110000000     0.0833126  
C553     C      0.137100000000     0.829910000000     0.959010000000    -0.166228   
C554     C      0.159680000000     0.808360000000     0.183640000000     0.0771734  
C555     C      0.127390000000     0.817370000000     0.186890000000     0.0760674  
C556     C      0.157160000000     0.806000000000     0.147140000000    -0.0940734  
C557     C      0.133600000000     0.789580000000     0.071920000000    -0.0383845  
C558     C      0.133810000000     0.790350000000     0.035150000000    -0.0286299  
C559     C      0.138960000000     0.810530000000     0.091460000000    -0.00468326 
C560     C      0.124810000000     0.815770000000     0.150350000000    -0.0949262  
C561     C      0.140040000000     0.812320000000     0.017200000000    -0.0187256  
C562     C      0.149740000000     0.799680000000     0.959290000000    -0.112891   
C563     C      0.145280000000     0.833230000000     0.037170000000    -0.0281854  
C564     C      0.152760000000     0.802210000000     0.922900000000     0.0858325  
C565     C      0.141030000000     0.832670000000     0.922640000000     0.245797   
C566     C      0.144470000000     0.832250000000     0.073860000000    -0.0380677  
C567     C      0.139960000000     0.810260000000     0.130190000000     0.05111    
C568     C      0.142030000000     0.813770000000     0.978030000000     0.0820106  
C569     C      0.394260000000     0.964690000000     0.919260000000    -0.165655   
C570     C      0.247200000000     0.852090000000     0.837150000000     0.0751942  
C571     C      0.246160000000     0.889210000000     0.838030000000     0.0748088  
C572     C      0.271250000000     0.864200000000     0.849680000000    -0.0932501  
C573     C      0.326060000000     0.896620000000     0.859150000000    -0.037706   
C574     C      0.349770000000     0.908570000000     0.873010000000    -0.0294477  
C575     C      0.308430000000     0.902430000000     0.871050000000    -0.00441352 
C576     C      0.270230000000     0.901900000000     0.850480000000    -0.0935968  
C577     C      0.356470000000     0.926670000000     0.899020000000    -0.0186778  
C578     C      0.393610000000     0.926250000000     0.921730000000    -0.112918   
C579     C      0.338930000000     0.932610000000     0.910780000000    -0.0289795  
C580     C      0.417550000000     0.938460000000     0.934550000000     0.0854034  
C581     C      0.418400000000     0.976580000000     0.931780000000     0.245163   
C582     C      0.315180000000     0.920600000000     0.897020000000    -0.0374241  
C583     C      0.283040000000     0.889390000000     0.856770000000     0.049834   
C584     C      0.381720000000     0.939350000000     0.913650000000     0.0821658  
C585     C      0.799110000000     0.646270000000     0.983600000000    -0.16455    
C586     C      0.819200000000     0.683470000000     0.754710000000     0.074685   
C587     C      0.810710000000     0.642380000000     0.759380000000     0.0749587  
C588     C      0.817350000000     0.684830000000     0.791160000000    -0.0951952  
C589     C      0.833520000000     0.682130000000     0.868550000000    -0.0380103  
C590     C      0.834100000000     0.682730000000     0.905260000000    -0.0286402  
C591     C      0.811880000000     0.666140000000     0.850710000000    -0.00500553 
C592     C      0.808100000000     0.642910000000     0.795810000000    -0.0947311  
C593     C      0.812860000000     0.667730000000     0.925040000000    -0.0181057  
C594     C      0.830240000000     0.688720000000     0.983020000000    -0.111985   
C595     C      0.791000000000     0.652210000000     0.906800000000    -0.0285108  
C596     C      0.832480000000     0.687770000000     0.019430000000     0.0859545  
C597     C      0.801210000000     0.645990000000     0.020260000000     0.245358   
C598     C      0.790620000000     0.651200000000     0.870030000000    -0.0383043  
C599     C      0.811960000000     0.664470000000     0.812010000000     0.0504103  
C600     C      0.813860000000     0.667670000000     0.964340000000     0.0815987  
C601     C      0.864400000000     0.681930000000     0.293940000000    -0.165383   
C602     C      0.844280000000     0.643470000000     0.522500000000     0.0752588  
C603     C      0.852880000000     0.684610000000     0.518080000000     0.0759894  
C604     C      0.846240000000     0.642240000000     0.486050000000    -0.0949014  
C605     C      0.830340000000     0.645060000000     0.408690000000    -0.0382536  
C606     C      0.829760000000     0.644680000000     0.371960000000    -0.0287772  
C607     C      0.851880000000     0.661170000000     0.426610000000    -0.00492249 
C608     C      0.855590000000     0.684200000000     0.481670000000    -0.0944171  
C609     C      0.850910000000     0.660040000000     0.352260000000    -0.0185684  
C610     C      0.833690000000     0.639320000000     0.294090000000    -0.11275    
C611     C      0.872700000000     0.675680000000     0.370570000000    -0.0287024  
C612     C      0.831390000000     0.640450000000     0.257740000000     0.0845961  
C613     C      0.862250000000     0.682390000000     0.257310000000     0.243897   
C614     C      0.873070000000     0.676460000000     0.407350000000    -0.0385409  
C615     C      0.851730000000     0.662690000000     0.465330000000     0.0505706  
C616     C      0.849890000000     0.660350000000     0.312970000000     0.0810552  
C617     C      0.604500000000     0.529820000000     0.519210000000    -0.166202   
C618     C      0.751070000000     0.642880000000     0.602030000000     0.0746502  
C619     C      0.749690000000     0.604680000000     0.606980000000     0.0749241  
C620     C      0.727060000000     0.631220000000     0.589260000000    -0.0935036  
C621     C      0.682280000000     0.603530000000     0.542670000000    -0.0378459  
C622     C      0.658690000000     0.591280000000     0.528380000000    -0.0291023  
C623     C      0.688830000000     0.592970000000     0.570220000000    -0.00443277 
C624     C      0.725740000000     0.592460000000     0.594180000000    -0.0938269  
C625     C      0.641130000000     0.568130000000     0.541170000000    -0.0191035  
C626     C      0.603360000000     0.567390000000     0.518590000000    -0.113592   
C627     C      0.647610000000     0.557630000000     0.568800000000    -0.0291135  
C628     C      0.579480000000     0.554570000000     0.505600000000     0.0845833  
C629     C      0.580520000000     0.517370000000     0.506160000000     0.244282   
C630     C      0.671140000000     0.569910000000     0.583200000000    -0.0380062  
C631     C      0.714120000000     0.605710000000     0.584880000000     0.0495361  
C632     C      0.616070000000     0.554990000000     0.525950000000     0.082034   
C633     C      0.938350000000     0.733480000000     0.684400000000    -0.166669   
C634     C      0.084170000000     0.767820000000     0.770860000000     0.0746482  
C635     C      0.083710000000     0.805230000000     0.769670000000     0.0756956  
C636     C      0.060060000000     0.755140000000     0.758540000000    -0.0934907  
C637     C      0.014930000000     0.736170000000     0.711990000000    -0.039357   
C638     C      0.991240000000     0.724540000000     0.698020000000    -0.0276781  
C639     C      0.022080000000     0.754840000000     0.737270000000    -0.00358051 
C640     C      0.059650000000     0.793160000000     0.757270000000    -0.0932704  
C641     C      0.974180000000     0.731390000000     0.708890000000    -0.0199593  
C642     C      0.935680000000     0.694150000000     0.688530000000    -0.113563   
C643     C      0.981220000000     0.749830000000     0.734430000000    -0.027384   
C644     C      0.911820000000     0.683280000000     0.675410000000     0.0846652  
C645     C      0.914400000000     0.722160000000     0.671350000000     0.244725   
C646     C      0.004840000000     0.761380000000     0.748490000000    -0.0393476  
C647     C      0.047520000000     0.767820000000     0.751340000000     0.0493795  
C648     C      0.949140000000     0.719500000000     0.693600000000     0.0825343  
H1       H      0.764930000000     0.090400000000     0.666910000000     0.0259905  
H2       H      0.732010000000     0.899020000000     0.772450000000     0.0239501  
H3       H      0.741000000000     0.026720000000     0.742170000000     0.0392398  
H4       H      0.756970000000     0.962510000000     0.695220000000     0.0360984  
H5       H      0.754510000000     0.940460000000     0.750260000000     0.0581012  
H6       H      0.778280000000     0.003530000000     0.669720000000     0.038439   
H7       H      0.688180000000     0.944270000000     0.750180000000     0.0815661  
H8       H      0.742930000000     0.048830000000     0.689200000000     0.0533892  
H9       H      0.809320000000     0.045010000000     0.683270000000     0.0529475  
H10      H      0.719580000000     0.985670000000     0.767400000000     0.0386474  
H11      H      0.830650000000     0.086370000000     0.660260000000     0.0258017  
H12      H      0.652520000000     0.893070000000     0.751420000000     0.152783   
H13      H      0.846690000000     0.239260000000     0.629350000000     0.0256977  
H14      H      0.998230000000     0.430670000000     0.520150000000     0.0231051  
H15      H      0.876130000000     0.306610000000     0.564440000000     0.0384293  
H16      H      0.965150000000     0.349650000000     0.540250000000     0.0360946  
H17      H      0.980100000000     0.390110000000     0.544650000000     0.0575273  
H18      H      0.946360000000     0.309860000000     0.567770000000     0.0386358  
H19      H      0.911320000000     0.372500000000     0.495840000000     0.0820187  
H20      H      0.867770000000     0.281220000000     0.609700000000     0.0528368  
H21      H      0.923350000000     0.269200000000     0.562450000000     0.0531487  
H22      H      0.895520000000     0.347710000000     0.542010000000     0.0360744  
H23      H      0.902900000000     0.228130000000     0.585720000000     0.0268542  
H24      H      0.918360000000     0.420870000000     0.487250000000     0.155094   
H25      H      0.062250000000     0.569630000000     0.438960000000     0.0259666  
H26      H      0.086980000000     0.757290000000     0.333070000000     0.0236877  
H27      H      0.080580000000     0.629740000000     0.358550000000     0.0392594  
H28      H      0.059850000000     0.690860000000     0.404650000000     0.0357471  
H29      H      0.064290000000     0.715300000000     0.353010000000     0.0576569  
H30      H      0.039370000000     0.649390000000     0.428880000000     0.0387285  
H31      H      0.130640000000     0.711480000000     0.351510000000     0.0815408  
H32      H      0.081020000000     0.610790000000     0.415500000000     0.0534948  
H33      H      0.010240000000     0.605740000000     0.412510000000     0.052923   
H34      H      0.100750000000     0.670950000000     0.333950000000     0.0383533  
H35      H      0.991890000000     0.564450000000     0.436280000000     0.0263892  
H36      H      0.166210000000     0.762670000000     0.352590000000     0.152959   
H37      H      0.590460000000     0.756200000000     0.831550000000     0.0266169  
H38      H      0.563090000000     0.567970000000     0.941250000000     0.0237852  
H39      H      0.566240000000     0.692980000000     0.909030000000     0.0395958  
H40      H      0.585720000000     0.630550000000     0.864790000000     0.0365166  
H41      H      0.583860000000     0.609260000000     0.918750000000     0.0578904  
H42      H      0.606440000000     0.671570000000     0.839430000000     0.038967   
H43      H      0.515910000000     0.610000000000     0.920630000000     0.0823846  
H44      H      0.568750000000     0.714610000000     0.853990000000     0.0539973  
H45      H      0.636650000000     0.713540000000     0.856120000000     0.0539603  
H46      H      0.545600000000     0.651970000000     0.934600000000     0.0369972  
H47      H      0.657780000000     0.754980000000     0.833270000000     0.0280285  
H48      H      0.489230000000     0.570690000000     0.970890000000     0.154677   
H49      H      0.323930000000     0.087780000000     0.166600000000     0.0265631  
H50      H      0.161590000000     0.901990000000     0.278540000000     0.0236041  
H51      H      0.283120000000     0.026170000000     0.244070000000     0.0389703  
H52      H      0.200330000000     0.965360000000     0.201260000000     0.0366467  
H53      H      0.181670000000     0.943590000000     0.256780000000     0.0579071  
H54      H      0.221270000000     0.006360000000     0.175560000000     0.038786   
H55      H      0.249780000000     0.943330000000     0.251530000000     0.0824685  
H56      H      0.302370000000     0.046510000000     0.189750000000     0.0537604  
H57      H      0.235190000000     0.049030000000     0.188760000000     0.0530615  
H58      H      0.262260000000     0.985200000000     0.269520000000     0.0365345  
H59      H      0.257240000000     0.090200000000     0.164810000000     0.025896   
H60      H      0.238510000000     0.903420000000     0.300030000000     0.151428   
H61      H      0.494860000000     0.423390000000     0.998620000000     0.0261115  
H62      H      0.333900000000     0.234270000000     0.104570000000     0.0236731  
H63      H      0.455800000000     0.358990000000     0.074430000000     0.0390309  
H64      H      0.374460000000     0.296970000000     0.028490000000     0.0367407  
H65      H      0.354640000000     0.275560000000     0.082090000000     0.057862   
H66      H      0.394840000000     0.338190000000     0.003800000000     0.0392419  
H67      H      0.423050000000     0.275780000000     0.085260000000     0.0820838  
H68      H      0.475260000000     0.381480000000     0.019940000000     0.0537174  
H69      H      0.406000000000     0.379800000000     0.021790000000     0.0532614  
H70      H      0.435350000000     0.317780000000     0.099350000000     0.0364975  
H71      H      0.426000000000     0.421500000000     0.000100000000     0.0264035  
H72      H      0.410040000000     0.236420000000     0.135590000000     0.152048   
H73      H      0.686270000000     0.806880000000     0.700010000000     0.0260318  
H74      H      0.694510000000     0.851710000000     0.411820000000     0.0231396  
H75      H      0.657640000000     0.775220000000     0.585190000000     0.0394895  
H76      H      0.660200000000     0.844970000000     0.520410000000     0.0362908  
H77      H      0.693760000000     0.848800000000     0.475270000000     0.0587049  
H78      H      0.656630000000     0.843300000000     0.584520000000     0.039216   
H79      H      0.632200000000     0.775630000000     0.469010000000     0.0817657  
H80      H      0.686340000000     0.803400000000     0.636400000000     0.054032   
H81      H      0.623900000000     0.813920000000     0.630510000000     0.0538051  
H82      H      0.660880000000     0.776730000000     0.520760000000     0.038555   
H83      H      0.623960000000     0.816910000000     0.694200000000     0.0256134  
H84      H      0.614650000000     0.776530000000     0.399800000000     0.153669   
H85      H      0.624840000000     0.803770000000     0.192570000000     0.0263504  
H86      H      0.636600000000     0.848970000000     0.904500000000     0.0259078  
H87      H      0.659750000000     0.809970000000     0.084410000000     0.0404086  
H88      H      0.665360000000     0.881350000000     0.020330000000     0.0372037  
H89      H      0.635760000000     0.852400000000     0.967890000000     0.0598763  
H90      H      0.661920000000     0.879600000000     0.084840000000     0.0399544  
H91      H      0.698580000000     0.842910000000     0.976210000000     0.0830401  
H92      H      0.625830000000     0.807570000000     0.129000000000     0.05458    
H93      H      0.690760000000     0.878540000000     0.137070000000     0.0548667  
H94      H      0.663680000000     0.811950000000     0.020340000000     0.0398137  
H95      H      0.689670000000     0.874080000000     0.200720000000     0.0278368  
H96      H      0.717420000000     0.856390000000     0.904870000000     0.152873   
H97      H      0.730110000000     0.822930000000     0.276680000000     0.0266257  
H98      H      0.760830000000     0.663550000000     0.170710000000     0.0243062  
H99      H      0.762710000000     0.772620000000     0.271310000000     0.039363   
H100     H      0.723600000000     0.710960000000     0.176440000000     0.0368682  
H101     H      0.738190000000     0.682130000000     0.193820000000     0.0585104  
H102     H      0.702130000000     0.730940000000     0.200630000000     0.039017   
H103     H      0.803560000000     0.752860000000     0.190000000000     0.0828472  
H104     H      0.750890000000     0.801970000000     0.255350000000     0.0537435  
H105     H      0.681780000000     0.734290000000     0.252110000000     0.0536933  
H106     H      0.784240000000     0.752930000000     0.246700000000     0.0376085  
H107     H      0.661410000000     0.756000000000     0.272590000000     0.0277498  
H108     H      0.839970000000     0.738010000000     0.188030000000     0.158013   
H109     H      0.567740000000     0.995820000000     0.433590000000     0.0264027  
H110     H      0.591480000000     0.831240000000     0.329940000000     0.0234925  
H111     H      0.588490000000     0.953280000000     0.358690000000     0.0392514  
H112     H      0.569050000000     0.872240000000     0.406720000000     0.0358978  
H113     H      0.570340000000     0.851830000000     0.351370000000     0.0580514  
H114     H      0.549500000000     0.893750000000     0.432100000000     0.0384393  
H115     H      0.638470000000     0.920200000000     0.352090000000     0.0814846  
H116     H      0.587950000000     0.974480000000     0.411050000000     0.0534656  
H117     H      0.519890000000     0.906030000000     0.419140000000     0.0530581  
H118     H      0.608240000000     0.931880000000     0.333690000000     0.0385537  
H119     H      0.500420000000     0.927800000000     0.442480000000     0.0259425  
H120     H      0.672440000000     0.902510000000     0.351970000000     0.152577   
H121     H      0.037060000000     0.522980000000     0.573660000000     0.0256623  
H122     H      0.960860000000     0.486510000000     0.860660000000     0.0236148  
H123     H      0.028250000000     0.508700000000     0.688450000000     0.0383358  
H124     H      0.971060000000     0.528990000000     0.749360000000     0.0369448  
H125     H      0.960900000000     0.490730000000     0.797290000000     0.0592032  
H126     H      0.972020000000     0.529110000000     0.685120000000     0.0375898  
H127     H      0.036550000000     0.547160000000     0.801020000000     0.082708   
H128     H      0.038630000000     0.529400000000     0.636350000000     0.0531008  
H129     H      0.961230000000     0.505020000000     0.635720000000     0.0526592  
H130     H      0.028240000000     0.510410000000     0.752290000000     0.0400585  
H131     H      0.960850000000     0.500550000000     0.572600000000     0.025432   
H132     H      0.039700000000     0.561500000000     0.874580000000     0.15264    
H133     H      0.962810000000     0.455000000000     0.068870000000     0.0260511  
H134     H      0.030720000000     0.491170000000     0.364580000000     0.0233182  
H135     H      0.966600000000     0.483460000000     0.183070000000     0.0403494  
H136     H      0.023370000000     0.465830000000     0.250790000000     0.0361725  
H137     H      0.031950000000     0.488310000000     0.301600000000     0.0574632  
H138     H      0.025980000000     0.468070000000     0.186660000000     0.0399251  
H139     H      0.954050000000     0.460430000000     0.297450000000     0.0819712  
H140     H      0.960820000000     0.449210000000     0.132230000000     0.055013   
H141     H      0.035860000000     0.507010000000     0.140820000000     0.0545069  
H142     H      0.964880000000     0.483030000000     0.246920000000     0.0363635  
H143     H      0.037200000000     0.512960000000     0.077420000000     0.0261109  
H144     H      0.946990000000     0.478200000000     0.363140000000     0.154556   
H145     H      0.930990000000     0.505510000000     0.995190000000     0.0259625  
H146     H      0.902820000000     0.665000000000     0.106930000000     0.0242782  
H147     H      0.910960000000     0.545020000000     0.077600000000     0.0393613  
H148     H      0.930200000000     0.627000000000     0.033890000000     0.0370143  
H149     H      0.925710000000     0.646310000000     0.085510000000     0.0581007  
H150     H      0.951280000000     0.606920000000     0.008620000000     0.0394219  
H151     H      0.860130000000     0.575610000000     0.088780000000     0.0826742  
H152     H      0.911140000000     0.526820000000     0.019000000000     0.0540637  
H153     H      0.981230000000     0.593030000000     0.025930000000     0.0538104  
H154     H      0.890330000000     0.565210000000     0.103510000000     0.0363962  
H155     H      0.000680000000     0.571180000000     0.001990000000     0.0253481  
H156     H      0.831840000000     0.586370000000     0.138210000000     0.151716   
H157     H      0.354940000000     0.140440000000     0.034060000000     0.0279397  
H158     H      0.304390000000     0.117640000000     0.737370000000     0.0234273  
H159     H      0.327220000000     0.178210000000     0.918890000000     0.0406572  
H160     H      0.330730000000     0.111810000000     0.853450000000     0.0366227  
H161     H      0.302630000000     0.112670000000     0.800670000000     0.0587595  
H162     H      0.326830000000     0.109430000000     0.917870000000     0.0395348  
H163     H      0.365990000000     0.184360000000     0.811090000000     0.0831862  
H164     H      0.355590000000     0.137280000000     0.970380000000     0.0553475  
H165     H      0.293310000000     0.147980000000     0.963390000000     0.054271   
H166     H      0.331530000000     0.180780000000     0.854890000000     0.0398954  
H167     H      0.292750000000     0.150610000000     0.027030000000     0.0259668  
H168     H      0.385700000000     0.190230000000     0.740280000000     0.152823   
H169     H      0.303220000000     0.182370000000     0.237760000000     0.02578    
H170     H      0.295970000000     0.138440000000     0.527700000000     0.0236014  
H171     H      0.330650000000     0.213850000000     0.352890000000     0.0397228  
H172     H      0.328780000000     0.144750000000     0.418600000000     0.0367203  
H173     H      0.295890000000     0.140830000000     0.464240000000     0.0589086  
H174     H      0.332180000000     0.146040000000     0.354500000000     0.0395483  
H175     H      0.356370000000     0.214700000000     0.468790000000     0.0823541  
H176     H      0.302570000000     0.185800000000     0.301350000000     0.0541751  
H177     H      0.364860000000     0.175130000000     0.308820000000     0.0541247  
H178     H      0.327540000000     0.212710000000     0.417330000000     0.0390628  
H179     H      0.365360000000     0.172150000000     0.245220000000     0.0261274  
H180     H      0.374980000000     0.214840000000     0.537570000000     0.154549   
H181     H      0.401940000000     0.162690000000     0.607710000000     0.0259288  
H182     H      0.429490000000     0.001230000000     0.500780000000     0.023806   
H183     H      0.424500000000     0.122660000000     0.529430000000     0.0392186  
H184     H      0.406130000000     0.041540000000     0.575740000000     0.035818   
H185     H      0.408130000000     0.021280000000     0.523060000000     0.0577573  
H186     H      0.385600000000     0.062070000000     0.601100000000     0.0385942  
H187     H      0.474980000000     0.090790000000     0.517610000000     0.081194   
H188     H      0.423250000000     0.142380000000     0.585200000000     0.0534833  
H189     H      0.355040000000     0.073820000000     0.584110000000     0.0529663  
H190     H      0.444810000000     0.102040000000     0.503700000000     0.0382136  
H191     H      0.334300000000     0.094550000000     0.606850000000     0.0255992  
H192     H      0.509960000000     0.074370000000     0.515160000000     0.152327   
H193     H      0.067760000000     0.493430000000     0.942270000000     0.0285144  
H194     H      0.092780000000     0.331040000000     0.834290000000     0.0243092  
H195     H      0.089200000000     0.453350000000     0.862630000000     0.0402348  
H196     H      0.066940000000     0.370600000000     0.906690000000     0.036711   
H197     H      0.071060000000     0.351120000000     0.854970000000     0.0582585  
H198     H      0.046300000000     0.391490000000     0.930580000000     0.0395233  
H199     H      0.138480000000     0.420280000000     0.854130000000     0.0823837  
H200     H      0.087700000000     0.471830000000     0.919800000000     0.0546811  
H201     H      0.017450000000     0.405870000000     0.911850000000     0.0537318  
H202     H      0.109510000000     0.432370000000     0.838190000000     0.0370044  
H203     H      0.997970000000     0.427980000000     0.934560000000     0.0269938  
H204     H      0.166400000000     0.408250000000     0.805710000000     0.155265   
H205     H      0.260370000000     0.165860000000     0.663700000000     0.0263471  
H206     H      0.231610000000     0.325670000000     0.774040000000     0.0246069  
H207     H      0.236480000000     0.204640000000     0.741770000000     0.0395995  
H208     H      0.255910000000     0.286680000000     0.698090000000     0.0371551  
H209     H      0.253130000000     0.305830000000     0.751700000000     0.0585394  
H210     H      0.276880000000     0.266570000000     0.672770000000     0.0402597  
H211     H      0.185840000000     0.236580000000     0.752820000000     0.0824777  
H212     H      0.238790000000     0.185890000000     0.686080000000     0.0539807  
H213     H      0.307000000000     0.254400000000     0.689670000000     0.0551577  
H214     H      0.215670000000     0.224810000000     0.767350000000     0.0370357  
H215     H      0.328020000000     0.233930000000     0.666910000000     0.0302961  
H216     H      0.158450000000     0.248310000000     0.802870000000     0.155966   
H217     H      0.448940000000     0.475190000000     0.868350000000     0.0281081  
H218     H      0.487830000000     0.520000000000     0.579510000000     0.0237112  
H219     H      0.446120000000     0.443720000000     0.753200000000     0.0401856  
H220     H      0.513690000000     0.513240000000     0.689070000000     0.0366646  
H221     H      0.484700000000     0.517130000000     0.642870000000     0.0592838  
H222     H      0.515060000000     0.511670000000     0.753220000000     0.0399415  
H223     H      0.472870000000     0.443750000000     0.637830000000     0.0823606  
H224     H      0.445470000000     0.471950000000     0.804650000000     0.0553415  
H225     H      0.518220000000     0.482030000000     0.798970000000     0.0541571  
H226     H      0.444910000000     0.445130000000     0.688670000000     0.0392116  
H227     H      0.521080000000     0.484780000000     0.862620000000     0.0259998  
H228     H      0.492340000000     0.444500000000     0.569440000000     0.153573   
H229     H      0.510960000000     0.471190000000     0.361720000000     0.0276246  
H230     H      0.541250000000     0.516870000000     0.072390000000     0.0235969  
H231     H      0.481750000000     0.476580000000     0.254210000000     0.0399247  
H232     H      0.545390000000     0.548100000000     0.188170000000     0.0371216  
H233     H      0.546210000000     0.520320000000     0.135650000000     0.0590118  
H234     H      0.548360000000     0.546740000000     0.252520000000     0.0397447  
H235     H      0.472690000000     0.507160000000     0.146200000000     0.08266    
H236     H      0.513090000000     0.474510000000     0.298080000000     0.0546691  
H237     H      0.520430000000     0.546180000000     0.305610000000     0.0544554  
H238     H      0.478600000000     0.478110000000     0.190290000000     0.0370947  
H239     H      0.517820000000     0.542230000000     0.369300000000     0.0261898  
H240     H      0.452920000000     0.484820000000     0.079230000000     0.152534   
H241     H      0.847900000000     0.136530000000     0.026620000000     0.0261384  
H242     H      0.816250000000     0.173130000000     0.746160000000     0.0240531  
H243     H      0.879420000000     0.160540000000     0.915970000000     0.0387317  
H244     H      0.840980000000     0.202810000000     0.855900000000     0.0363725  
H245     H      0.820940000000     0.176820000000     0.808770000000     0.0579112  
H246     H      0.840330000000     0.200720000000     0.919510000000     0.0388126  
H247     H      0.892170000000     0.183500000000     0.799330000000     0.0813808  
H248     H      0.853650000000     0.141440000000     0.963720000000     0.0530219  
H249     H      0.861720000000     0.213540000000     0.972150000000     0.0537551  
H250     H      0.878230000000     0.160870000000     0.852090000000     0.0364444  
H251     H      0.854570000000     0.207410000000     0.034740000000     0.0282506  
H252     H      0.887060000000     0.161550000000     0.731060000000     0.153359   
H253     H      0.792640000000     0.155810000000     0.534690000000     0.0261935  
H254     H      0.826660000000     0.120490000000     0.239840000000     0.0234185  
H255     H      0.820480000000     0.179390000000     0.419550000000     0.0405004  
H256     H      0.800560000000     0.103880000000     0.353170000000     0.03603    
H257     H      0.823430000000     0.116970000000     0.302770000000     0.057304   
H258     H      0.803020000000     0.103920000000     0.417270000000     0.0397555  
H259     H      0.797550000000     0.168790000000     0.304670000000     0.0813679  
H260     H      0.786580000000     0.152240000000     0.471350000000     0.0546649  
H261     H      0.842450000000     0.132190000000     0.462110000000     0.0541949  
H262     H      0.819820000000     0.180230000000     0.355630000000     0.0363145  
H263     H      0.848710000000     0.136590000000     0.525440000000     0.0259302  
H264     H      0.816140000000     0.192820000000     0.238560000000     0.154192   
H265     H      0.146360000000     0.357890000000     0.403230000000     0.0258578  
H266     H      0.115240000000     0.302780000000     0.703650000000     0.0256686  
H267     H      0.162850000000     0.368170000000     0.518640000000     0.0390856  
H268     H      0.122180000000     0.291750000000     0.589060000000     0.0369552  
H269     H      0.109310000000     0.302310000000     0.640940000000     0.058636   
H270     H      0.120440000000     0.289140000000     0.525350000000     0.0388658  
H271     H      0.182200000000     0.364080000000     0.630120000000     0.0816258  
H272     H      0.140460000000     0.359050000000     0.465970000000     0.0530601  
H273     H      0.146450000000     0.294030000000     0.478340000000     0.0542309  
H274     H      0.162930000000     0.370840000000     0.582320000000     0.0380424  
H275     H      0.151160000000     0.292820000000     0.415530000000     0.0282216  
H276     H      0.202900000000     0.361250000000     0.695530000000     0.153559   
H277     H      0.172900000000     0.291160000000     0.203160000000     0.0260641  
H278     H      0.201490000000     0.360540000000     0.908900000000     0.0267208  
H279     H      0.144580000000     0.297130000000     0.090380000000     0.0405007  
H280     H      0.219290000000     0.349470000000     0.020600000000     0.0362821  
H281     H      0.205960000000     0.360620000000     0.971630000000     0.0586132  
H282     H      0.221030000000     0.351800000000     0.084750000000     0.0399804  
H283     H      0.151110000000     0.283940000000     0.974450000000     0.0810383  
H284     H      0.175400000000     0.289110000000     0.139540000000     0.0545885  
H285     H      0.191730000000     0.364020000000     0.131810000000     0.0548441  
H286     H      0.142020000000     0.295850000000     0.026490000000     0.0363183  
H287     H      0.188360000000     0.365420000000     0.195450000000     0.0257465  
H288     H      0.126460000000     0.280020000000     0.909190000000     0.154789   
H289     H      0.093890000000     0.326070000000     0.270790000000     0.0261143  
H290     H      0.905230000000     0.163780000000     0.166650000000     0.0237219  
H291     H      0.009720000000     0.276620000000     0.267190000000     0.0394566  
H292     H      0.987910000000     0.212870000000     0.175680000000     0.0362752  
H293     H      0.946280000000     0.184170000000     0.189870000000     0.0576779  
H294     H      0.029030000000     0.233300000000     0.200630000000     0.0391139  
H295     H      0.946080000000     0.252500000000     0.190220000000     0.081907   
H296     H      0.052310000000     0.305590000000     0.248390000000     0.0536357  
H297     H      0.049970000000     0.236150000000     0.257240000000     0.053171   
H298     H      0.968440000000     0.255920000000     0.242750000000     0.0363598  
H299     H      0.091590000000     0.257130000000     0.279390000000     0.026131   
H300     H      0.894100000000     0.234230000000     0.189240000000     0.152386   
H301     H      0.426550000000     0.425270000000     0.439920000000     0.0285738  
H302     H      0.237740000000     0.396770000000     0.331810000000     0.0238971  
H303     H      0.363160000000     0.401690000000     0.364560000000     0.039013   
H304     H      0.301270000000     0.421860000000     0.408750000000     0.0370603  
H305     H      0.279230000000     0.418550000000     0.353630000000     0.0580507  
H306     H      0.342470000000     0.442850000000     0.433520000000     0.0393594  
H307     H      0.280210000000     0.350700000000     0.357990000000     0.082141   
H308     H      0.385050000000     0.404200000000     0.417720000000     0.0543696  
H309     H      0.384400000000     0.472420000000     0.419340000000     0.0533228  
H310     H      0.321940000000     0.380590000000     0.340070000000     0.0365858  
H311     H      0.425790000000     0.492870000000     0.442380000000     0.0263197  
H312     H      0.240480000000     0.321950000000     0.309420000000     0.151694   
H313     H      0.483790000000     0.960780000000     0.576840000000     0.0256871  
H314     H      0.526440000000     0.037180000000     0.862540000000     0.0256705  
H315     H      0.531490000000     0.972380000000     0.684910000000     0.040259   
H316     H      0.511490000000     0.029210000000     0.747710000000     0.0358029  
H317     H      0.532440000000     0.039390000000     0.799840000000     0.0581157  
H318     H      0.511850000000     0.028870000000     0.683720000000     0.0399235  
H319     H      0.508980000000     0.962240000000     0.798260000000     0.0807772  
H320     H      0.489590000000     0.961810000000     0.640230000000     0.0545319  
H321     H      0.548980000000     0.036160000000     0.632060000000     0.0545291  
H322     H      0.533000000000     0.973720000000     0.749100000000     0.0380189  
H323     H      0.543380000000     0.034450000000     0.568580000000     0.0256362  
H324     H      0.484660000000     0.947910000000     0.864610000000     0.151668   
H325     H      0.453750000000     0.963080000000     0.367040000000     0.0261305  
H326     H      0.494920000000     0.030500000000     0.071390000000     0.0244212  
H327     H      0.484970000000     0.966260000000     0.253780000000     0.0406283  
H328     H      0.467590000000     0.022400000000     0.183820000000     0.036699   
H329     H      0.491100000000     0.031450000000     0.134190000000     0.0579151  
H330     H      0.468710000000     0.025040000000     0.247960000000     0.0405588  
H331     H      0.464490000000     0.953680000000     0.138290000000     0.081715   
H332     H      0.448670000000     0.960870000000     0.303490000000     0.055073   
H333     H      0.508480000000     0.034970000000     0.294750000000     0.0552206  
H334     H      0.485730000000     0.964560000000     0.189950000000     0.0363231  
H335     H      0.513740000000     0.036500000000     0.358300000000     0.0278629  
H336     H      0.483650000000     0.947390000000     0.073220000000     0.15438    
H337     H      0.759400000000     0.154450000000     0.103310000000     0.0283695  
H338     H      0.569520000000     0.994100000000     0.999120000000     0.0254351  
H339     H      0.698220000000     0.113430000000     0.024080000000     0.0396932  
H340     H      0.636010000000     0.032480000000     0.071120000000     0.0363701  
H341     H      0.611350000000     0.012570000000     0.019550000000     0.058401   
H342     H      0.677450000000     0.052720000000     0.095290000000     0.0394898  
H343     H      0.616740000000     0.083500000000     0.017000000000     0.081649   
H344     H      0.718190000000     0.133110000000     0.079930000000     0.0544781  
H345     H      0.720500000000     0.065780000000     0.079470000000     0.0536895  
H346     H      0.657020000000     0.093160000000     0.999620000000     0.0387199  
H347     H      0.761770000000     0.087650000000     0.103180000000     0.026359   
H348     H      0.565840000000     0.069040000000     0.017460000000     0.152475   
H349     H      0.135620000000     0.839980000000     0.415270000000     0.0256642  
H350     H      0.185940000000     0.874170000000     0.701640000000     0.0236361  
H351     H      0.143920000000     0.811390000000     0.522540000000     0.0395599  
H352     H      0.216070000000     0.877160000000     0.584830000000     0.0369842  
H353     H      0.188520000000     0.878160000000     0.638190000000     0.0587425  
H354     H      0.213250000000     0.878890000000     0.520480000000     0.0391841  
H355     H      0.177790000000     0.805320000000     0.629790000000     0.0824746  
H356     H      0.140360000000     0.842460000000     0.478750000000     0.0538639  
H357     H      0.211690000000     0.849690000000     0.467500000000     0.05416    
H358     H      0.146940000000     0.809440000000     0.586450000000     0.037036   
H359     H      0.206310000000     0.846660000000     0.403990000000     0.0260774  
H360     H      0.156690000000     0.786130000000     0.697460000000     0.152291   
H361     H      0.115520000000     0.822010000000     0.201570000000     0.0259435  
H362     H      0.159140000000     0.791110000000     0.909870000000     0.0238826  
H363     H      0.148930000000     0.848710000000     0.088550000000     0.0409     
H364     H      0.129130000000     0.773700000000     0.020910000000     0.0361056  
H365     H      0.154190000000     0.787190000000     0.972580000000     0.0578701  
H366     H      0.129200000000     0.772600000000     0.085120000000     0.0403073  
H367     H      0.130250000000     0.840550000000     0.972090000000     0.0812731  
H368     H      0.111260000000     0.819090000000     0.137900000000     0.0547343  
H369     H      0.169190000000     0.801750000000     0.132150000000     0.0560367  
H370     H      0.150710000000     0.850650000000     0.024650000000     0.0363359  
H371     H      0.173660000000     0.805540000000     0.195780000000     0.0293939  
H372     H      0.151130000000     0.864840000000     0.906700000000     0.154055   
H373     H      0.236930000000     0.899630000000     0.833780000000     0.0257652  
H374     H      0.425880000000     0.927370000000     0.940230000000     0.0262435  
H375     H      0.301980000000     0.925260000000     0.907240000000     0.0392729  
H376     H      0.362970000000     0.903860000000     0.862950000000     0.0363208  
H377     H      0.384440000000     0.906550000000     0.918360000000     0.0590956  
H378     H      0.321650000000     0.883030000000     0.838780000000     0.0391113  
H379     H      0.385660000000     0.975460000000     0.913140000000     0.0815066  
H380     H      0.278740000000     0.921450000000     0.854980000000     0.0530548  
H381     H      0.280300000000     0.853690000000     0.854490000000     0.0537838  
H382     H      0.343430000000     0.946260000000     0.931100000000     0.0391423  
H383     H      0.238730000000     0.832550000000     0.832460000000     0.0275329  
H384     H      0.437610000000     0.008640000000     0.913490000000     0.15306    
H385     H      0.808180000000     0.625520000000     0.747860000000     0.0257854  
H386     H      0.845770000000     0.704510000000     0.032430000000     0.0258628  
H387     H      0.773710000000     0.638820000000     0.856650000000     0.0400871  
H388     H      0.851440000000     0.694520000000     0.918000000000     0.0366451  
H389     H      0.841530000000     0.705990000000     0.969710000000     0.0581378  
H390     H      0.850200000000     0.693620000000     0.854040000000     0.0402433  
H391     H      0.786400000000     0.629390000000     0.970450000000     0.0821038  
H392     H      0.803950000000     0.626850000000     0.811330000000     0.0550274  
H393     H      0.820380000000     0.701770000000     0.803010000000     0.0544101  
H394     H      0.774120000000     0.640770000000     0.920810000000     0.036274   
H395     H      0.823730000000     0.699770000000     0.739500000000     0.0255376  
H396     H      0.771490000000     0.624730000000     0.043520000000     0.153254   
H397     H      0.855410000000     0.701450000000     0.529700000000     0.0278332  
H398     H      0.818250000000     0.623710000000     0.244580000000     0.023471   
H399     H      0.889910000000     0.688950000000     0.420800000000     0.0402305  
H400     H      0.812460000000     0.632790000000     0.359180000000     0.0363249  
H401     H      0.822600000000     0.621930000000     0.307200000000     0.0573279  
H402     H      0.813710000000     0.633310000000     0.423140000000     0.0405032  
H403     H      0.876950000000     0.698800000000     0.307270000000     0.081043   
H404     H      0.859830000000     0.700330000000     0.466270000000     0.0554565  
H405     H      0.843200000000     0.625330000000     0.474090000000     0.0543892  
H406     H      0.889520000000     0.687400000000     0.356610000000     0.0359264  
H407     H      0.839670000000     0.627110000000     0.537620000000     0.0258281  
H408     H      0.891840000000     0.704130000000     0.234110000000     0.153041   
H409     H      0.757990000000     0.593650000000     0.613400000000     0.0259597  
H410     H      0.570380000000     0.565060000000     0.500740000000     0.0239579  
H411     H      0.675370000000     0.561420000000     0.604800000000     0.0385925  
H412     H      0.654330000000     0.599740000000     0.506870000000     0.0369653  
H413     H      0.611590000000     0.586860000000     0.523580000000     0.0580463  
H414     H      0.695530000000     0.621060000000     0.531620000000     0.039026   
H415     H      0.613970000000     0.519700000000     0.524040000000     0.0818012  
H416     H      0.716620000000     0.572770000000     0.590870000000     0.053191   
H417     H      0.718700000000     0.642180000000     0.583010000000     0.0530738  
H418     H      0.634360000000     0.540010000000     0.579640000000     0.036359   
H419     H      0.760430000000     0.662650000000     0.604740000000     0.0262401  
H420     H      0.562260000000     0.484750000000     0.522880000000     0.151432   
H421     H      0.092410000000     0.824890000000     0.773480000000     0.0278244  
H422     H      0.902090000000     0.663520000000     0.672420000000     0.023865   
H423     H      0.009540000000     0.775330000000     0.768390000000     0.0395881  
H424     H      0.986440000000     0.710560000000     0.678130000000     0.0363143  
H425     H      0.943310000000     0.682630000000     0.695420000000     0.0580739  
H426     H      0.027820000000     0.730910000000     0.702370000000     0.0386985  
H427     H      0.948420000000     0.753240000000     0.687310000000     0.0818676  
H428     H      0.050830000000     0.803790000000     0.751660000000     0.0536571  
H429     H      0.051300000000     0.735500000000     0.754880000000     0.0529913  
H430     H      0.968350000000     0.755210000000     0.743840000000     0.036363   
H431     H      0.093210000000     0.757300000000     0.775890000000     0.0261501  
H432     H      0.897230000000     0.738380000000     0.685010000000     0.152247   
N1       N      0.697100000000     0.897390000000     0.773980000000    -0.225722   
N2       N      0.799470000000     0.091590000000     0.662250000000    -0.198822   
N3       N      0.965180000000     0.425740000000     0.496330000000    -0.226293   
N4       N      0.873100000000     0.230550000000     0.608720000000    -0.198714   
N5       N      0.121820000000     0.758830000000     0.330580000000    -0.225539   
N6       N      0.025630000000     0.563840000000     0.439000000000    -0.198642   
N7       N      0.527510000000     0.564800000000     0.944040000000    -0.225545   
N8       N      0.625760000000     0.758780000000     0.831000000000    -0.198419   
N9       N      0.193780000000     0.898360000000     0.277560000000    -0.225808   
N10      N      0.292270000000     0.092190000000     0.164360000000    -0.198812   
N11      N      0.366150000000     0.230850000000     0.108050000000    -0.225744   
N12      N      0.461950000000     0.425640000000     0.998020000000    -0.198784   
N13      N      0.663340000000     0.815850000000     0.403460000000    -0.226488   
N14      N      0.655390000000     0.812590000000     0.701760000000    -0.19925    
N15      N      0.667760000000     0.843620000000     0.903490000000    -0.225843   
N16      N      0.657440000000     0.838430000000     0.201300000000    -0.19874    
N17      N      0.795360000000     0.697130000000     0.167560000000    -0.225427   
N18      N      0.694190000000     0.791110000000     0.275940000000    -0.19838    
N19      N      0.627170000000     0.863500000000     0.328920000000    -0.225891   
N20      N      0.532540000000     0.963460000000     0.439420000000    -0.198793   
N21      N      0.998580000000     0.514210000000     0.867740000000    -0.225555   
N22      N      0.998780000000     0.510960000000     0.568530000000    -0.198762   
N23      N      0.992320000000     0.479200000000     0.367430000000    -0.225545   
N24      N      0.000020000000     0.484670000000     0.068510000000    -0.198946   
N25      N      0.868390000000     0.631380000000     0.110660000000    -0.225331   
N26      N      0.967350000000     0.536660000000     0.997210000000    -0.199119   
N27      N      0.335890000000     0.153900000000     0.737400000000    -0.226197   
N28      N      0.324100000000     0.146230000000     0.035210000000    -0.198702   
N29      N      0.326690000000     0.174700000000     0.535200000000    -0.226212   
N30      N      0.334050000000     0.176570000000     0.236820000000    -0.199222   
N31      N      0.464510000000     0.034100000000     0.496230000000    -0.225714   
N32      N      0.366510000000     0.130210000000     0.608640000000    -0.199111   
N33      N      0.128070000000     0.363770000000     0.831850000000    -0.225817   
N34      N      0.031360000000     0.462390000000     0.939770000000    -0.198231   
N35      N      0.196350000000     0.292910000000     0.776520000000    -0.225572   
N36      N      0.295830000000     0.198330000000     0.663950000000    -0.198114   
N37      N      0.483110000000     0.484020000000     0.571760000000    -0.226417   
N38      N      0.485420000000     0.480650000000     0.870150000000    -0.198681   
N39      N      0.504070000000     0.509610000000     0.072470000000    -0.226179   
N40      N      0.513700000000     0.506230000000     0.370170000000    -0.198741   
N41      N      0.850790000000     0.175110000000     0.736000000000    -0.225607   
N42      N      0.850340000000     0.171380000000     0.035280000000    -0.198215   
N43      N      0.815660000000     0.147700000000     0.235750000000    -0.226073   
N44      N      0.821360000000     0.146810000000     0.534710000000    -0.198689   
N45      N      0.151910000000     0.333530000000     0.703450000000    -0.225388   
N46      N      0.149500000000     0.325460000000     0.404740000000    -0.198594   
N47      N      0.172860000000     0.322910000000     0.905300000000    -0.225935   
N48      N      0.180020000000     0.328300000000     0.203950000000    -0.198888   
N49      N      0.901380000000     0.195870000000     0.165830000000    -0.225576   
N50      N      0.095940000000     0.293180000000     0.276460000000    -0.198571   
N51      N      0.234700000000     0.361170000000     0.332260000000    -0.225486   
N52      N      0.429370000000     0.460690000000     0.442520000000    -0.198017   
N53      N      0.514740000000     0.998860000000     0.866960000000    -0.225435   
N54      N      0.512950000000     0.997630000000     0.568070000000    -0.198862   
N55      N      0.483560000000     0.992180000000     0.068510000000    -0.225838   
N56      N      0.484390000000     0.999790000000     0.367320000000    -0.198377   
N57      N      0.568800000000     0.027850000000     0.996010000000    -0.225044   
N58      N      0.763770000000     0.122720000000     0.104700000000    -0.197983   
N59      N      0.179920000000     0.837390000000     0.702640000000    -0.225934   
N60      N      0.170410000000     0.842680000000     0.404960000000    -0.199099   
N61      N      0.149090000000     0.818970000000     0.904660000000    -0.226345   
N62      N      0.145160000000     0.814380000000     0.203310000000    -0.198417   
N63      N      0.430120000000     0.963480000000     0.939220000000    -0.224798   
N64      N      0.234630000000     0.864440000000     0.831740000000    -0.198219   
N65      N      0.818440000000     0.666540000000     0.038040000000    -0.22514    
N66      N      0.816570000000     0.662630000000     0.739040000000    -0.198816   
N67      N      0.845210000000     0.661840000000     0.239350000000    -0.226107   
N68      N      0.846890000000     0.664280000000     0.538300000000    -0.198536   
N69      N      0.567890000000     0.529700000000     0.499680000000    -0.225332   
N70      N      0.762400000000     0.629730000000     0.610490000000    -0.198411   
N71      N      0.901000000000     0.697000000000     0.667190000000    -0.22528    
N72      N      0.096000000000     0.792720000000     0.776090000000    -0.198178   
Ni1      Ni     0.830620000000     0.644100000000     0.641810000000     1.00072    
Ni2      Ni     0.832700000000     0.682660000000     0.635490000000     1.00619    
Ni3      Ni     0.165880000000     0.809990000000     0.803410000000     1.0072     
Ni4      Ni     0.164740000000     0.847150000000     0.804390000000     1.00495    
Ni5      Ni     0.498080000000     0.976170000000     0.969690000000     1.00667    
Ni6      Ni     0.500750000000     0.015080000000     0.965940000000     1.00962    
Ni7      Ni     0.164390000000     0.307930000000     0.307380000000     1.0094     
Ni8      Ni     0.166040000000     0.346330000000     0.301540000000     1.00029    
Ni9      Ni     0.833600000000     0.140940000000     0.134090000000     0.999321   
Ni10     Ni     0.831410000000     0.177500000000     0.136460000000     1.01037    
Ni11     Ni     0.498820000000     0.476480000000     0.469270000000     1.01202    
Ni12     Ni     0.498360000000     0.513930000000     0.472560000000     1.00146    
Ni13     Ni     0.181020000000     0.347120000000     0.803220000000     1.01346    
Ni14     Ni     0.143450000000     0.309490000000     0.805740000000     1.00758    
Ni15     Ni     0.350030000000     0.183170000000     0.637740000000     1.01275    
Ni16     Ni     0.312440000000     0.145490000000     0.634870000000     1.00377    
Ni17     Ni     0.018850000000     0.517460000000     0.971370000000     1.00562    
Ni18     Ni     0.979850000000     0.481660000000     0.965170000000     1.00457    
Ni19     Ni     0.679710000000     0.845550000000     0.304120000000     1.01061    
Ni20     Ni     0.641380000000     0.808710000000     0.300380000000     1.00537    
Ni21     Ni     0.849910000000     0.683610000000     0.136250000000     1.00853    
Ni22     Ni     0.813700000000     0.644920000000     0.141200000000     1.01054    
Ni23     Ni     0.517080000000     0.017780000000     0.464500000000     1.00719    
Ni24     Ni     0.480110000000     0.979790000000     0.470980000000     1.00326    
Ni25     Ni     0.310620000000     0.162050000000     0.134510000000     1.00325    
Ni26     Ni     0.347630000000     0.160740000000     0.137530000000     1.00959    
Ni27     Ni     0.475600000000     0.494640000000     0.972340000000     1.01266    
Ni28     Ni     0.513790000000     0.495700000000     0.970050000000     1.00336    
Ni29     Ni     0.139480000000     0.829540000000     0.306650000000     1.00052    
Ni30     Ni     0.176100000000     0.827700000000     0.301580000000     1.0144     
Ni31     Ni     0.975670000000     0.492920000000     0.466230000000     1.00705    
Ni32     Ni     0.015140000000     0.496880000000     0.469980000000     1.00412    
Ni33     Ni     0.818360000000     0.162520000000     0.638740000000     1.00739    
Ni34     Ni     0.854240000000     0.159540000000     0.631610000000     1.00085    
Ni35     Ni     0.642760000000     0.828310000000     0.801690000000     1.00722    
Ni36     Ni     0.680140000000     0.827710000000     0.803380000000     1.00897    
O1       O      0.838970000000     0.646170000000     0.592960000000    -0.449247   
O2       O      0.822180000000     0.644430000000     0.690180000000    -0.449336   
O3       O      0.796790000000     0.628990000000     0.629000000000    -0.450155   
O4       O      0.864710000000     0.661790000000     0.654230000000    -0.450622   
O5       O      0.866520000000     0.697720000000     0.648290000000    -0.438769   
O6       O      0.798600000000     0.665000000000     0.623110000000    -0.448466   
O7       O      0.824370000000     0.680610000000     0.684320000000    -0.450423   
O8       O      0.841140000000     0.682340000000     0.587150000000    -0.447355   
O9       O      0.157870000000     0.806530000000     0.852420000000    -0.452855   
O10      O      0.173780000000     0.815900000000     0.754430000000    -0.438714   
O11      O      0.199910000000     0.828860000000     0.815400000000    -0.447879   
O12      O      0.131740000000     0.793510000000     0.791500000000    -0.448895   
O13      O      0.130950000000     0.828420000000     0.791240000000    -0.447479   
O14      O      0.198650000000     0.863500000000     0.817450000000    -0.449994   
O15      O      0.173690000000     0.851090000000     0.755670000000    -0.452661   
O16      O      0.155730000000     0.840670000000     0.853000000000    -0.441555   
O17      O      0.506590000000     0.979420000000     0.920850000000    -0.43697    
O18      O      0.489430000000     0.975310000000     0.018200000000    -0.441392   
O19      O      0.464310000000     0.961830000000     0.956710000000    -0.448549   
O20      O      0.532160000000     0.993150000000     0.982430000000    -0.448866   
O21      O      0.534500000000     0.029420000000     0.978650000000    -0.43908    
O22      O      0.466700000000     0.998140000000     0.953440000000    -0.437797   
O23      O      0.492350000000     0.011870000000     0.014890000000    -0.449386   
O24      O      0.509200000000     0.015840000000     0.917320000000    -0.450118   
O25      O      0.156420000000     0.308220000000     0.355920000000    -0.448637   
O26      O      0.172360000000     0.310080000000     0.258450000000    -0.451044   
O27      O      0.198510000000     0.325790000000     0.319190000000    -0.436912   
O28      O      0.130410000000     0.292620000000     0.295110000000    -0.450286   
O29      O      0.132080000000     0.328530000000     0.288770000000    -0.449248   
O30      O      0.199870000000     0.361590000000     0.314740000000    -0.451712   
O31      O      0.174790000000     0.346410000000     0.253200000000    -0.449243   
O32      O      0.157190000000     0.343740000000     0.350230000000    -0.449311   
O33      O      0.842420000000     0.148120000000     0.085470000000    -0.448596   
O34      O      0.824750000000     0.136220000000     0.182870000000    -0.451802   
O35      O      0.799660000000     0.124040000000     0.120900000000    -0.447611   
O36      O      0.867340000000     0.160220000000     0.147490000000    -0.45161    
O37      O      0.865050000000     0.194200000000     0.150760000000    -0.43985    
O38      O      0.797940000000     0.158450000000     0.121940000000    -0.447514   
O39      O      0.821630000000     0.169800000000     0.184660000000    -0.441788   
O40      O      0.841360000000     0.182850000000     0.088140000000    -0.447475   
O41      O      0.490130000000     0.471670000000     0.518030000000    -0.442331   
O42      O      0.507300000000     0.483640000000     0.420640000000    -0.44881    
O43      O      0.532750000000     0.494620000000     0.482160000000    -0.438497   
O44      O      0.464900000000     0.460790000000     0.456710000000    -0.447897   
O45      O      0.464370000000     0.495780000000     0.459710000000    -0.448047   
O46      O      0.532320000000     0.529600000000     0.485110000000    -0.452128   
O47      O      0.507000000000     0.518750000000     0.423760000000    -0.44997    
O48      O      0.489890000000     0.506730000000     0.521210000000    -0.453109   
O49      O      0.174520000000     0.348730000000     0.754370000000    -0.438878   
O50      O      0.185060000000     0.343090000000     0.852230000000    -0.451025   
O51      O      0.196540000000     0.328520000000     0.791330000000    -0.452183   
O52      O      0.163040000000     0.363220000000     0.815270000000    -0.437165   
O53      O      0.128030000000     0.328020000000     0.818560000000    -0.452771   
O54      O      0.161300000000     0.293440000000     0.792680000000    -0.435177   
O55      O      0.150420000000     0.307430000000     0.854330000000    -0.440981   
O56      O      0.139010000000     0.313980000000     0.756950000000    -0.449557   
O57      O      0.345960000000     0.187600000000     0.588910000000    -0.442268   
O58      O      0.351580000000     0.176350000000     0.686460000000    -0.439122   
O59      O      0.366140000000     0.165210000000     0.625220000000    -0.450898   
O60      O      0.331500000000     0.198660000000     0.649980000000    -0.444811   
O61      O      0.296320000000     0.163450000000     0.647180000000    -0.449714   
O62      O      0.330950000000     0.129980000000     0.622850000000    -0.451998   
O63      O      0.316490000000     0.141160000000     0.683830000000    -0.45274    
O64      O      0.311010000000     0.152280000000     0.586030000000    -0.452794   
O65      O      0.016820000000     0.523940000000     0.922570000000    -0.438648   
O66      O      0.018400000000     0.508490000000     0.019720000000    -0.448991   
O67      O      0.033130000000     0.497990000000     0.958380000000    -0.447764   
O68      O      0.001980000000     0.534690000000     0.983950000000    -0.450191   
O69      O      0.965570000000     0.501130000000     0.978230000000    -0.451506   
O70      O      0.996720000000     0.464450000000     0.952580000000    -0.448551   
O71      O      0.981840000000     0.475120000000     0.013920000000    -0.449588   
O72      O      0.980310000000     0.490660000000     0.916860000000    -0.452127   
O73      O      0.680230000000     0.838340000000     0.353020000000    -0.453649   
O74      O      0.676550000000     0.850410000000     0.255070000000    -0.44812    
O75      O      0.662150000000     0.862090000000     0.315570000000    -0.441972   
O76      O      0.694850000000     0.826610000000     0.292330000000    -0.45097    
O77      O      0.659010000000     0.792150000000     0.288640000000    -0.446932   
O78      O      0.626300000000     0.827760000000     0.312500000000    -0.451856   
O79      O      0.640690000000     0.815940000000     0.251620000000    -0.45086    
O80      O      0.644610000000     0.803780000000     0.349300000000    -0.442646   
O81      O      0.841630000000     0.683890000000     0.087760000000    -0.448919   
O82      O      0.855690000000     0.680920000000     0.185130000000    -0.439774   
O83      O      0.866710000000     0.666300000000     0.123780000000    -0.45166    
O84      O      0.830820000000     0.698340000000     0.149090000000    -0.43652    
O85      O      0.796920000000     0.662240000000     0.153810000000    -0.451878   
O86      O      0.832780000000     0.630210000000     0.128300000000    -0.436214   
O87      O      0.822010000000     0.644600000000     0.189640000000    -0.452792   
O88      O      0.807880000000     0.647630000000     0.092370000000    -0.436383   
O89      O      0.523300000000     0.015590000000     0.513350000000    -0.450296   
O90      O      0.508340000000     0.017630000000     0.416140000000    -0.447301   
O91      O      0.499100000000     0.033710000000     0.477250000000    -0.439144   
O92      O      0.532670000000     0.999290000000     0.452190000000    -0.449619   
O93      O      0.498040000000     0.963810000000     0.458190000000    -0.450989   
O94      O      0.464560000000     0.998310000000     0.483350000000    -0.451987   
O95      O      0.473880000000     0.982000000000     0.422140000000    -0.449557   
O96      O      0.488880000000     0.979920000000     0.519310000000    -0.450087   
O97      O      0.314860000000     0.170600000000     0.183330000000    -0.451174   
O98      O      0.308840000000     0.153560000000     0.085810000000    -0.450694   
O99      O      0.293680000000     0.127980000000     0.147190000000    -0.449331   
O100     O      0.329990000000     0.195970000000     0.122130000000    -0.452816   
O101     O      0.364540000000     0.194790000000     0.124990000000    -0.437477   
O102     O      0.328330000000     0.126840000000     0.149810000000    -0.451369   
O103     O      0.343400000000     0.152240000000     0.088650000000    -0.447736   
O104     O      0.349350000000     0.169170000000     0.186280000000    -0.451029   
O105     O      0.471770000000     0.486500000000     0.923360000000    -0.447979   
O106     O      0.481860000000     0.502700000000     0.021240000000    -0.438855   
O107     O      0.492910000000     0.528790000000     0.960300000000    -0.435195   
O108     O      0.460810000000     0.460630000000     0.984150000000    -0.451229   
O109     O      0.496510000000     0.461550000000     0.982150000000    -0.449616   
O110     O      0.528540000000     0.529720000000     0.958170000000    -0.452515   
O111     O      0.517610000000     0.503880000000     0.019010000000    -0.453495   
O112     O      0.507560000000     0.487610000000     0.921180000000    -0.45068    
O113     O      0.147120000000     0.836900000000     0.355470000000    -0.451167   
O114     O      0.134240000000     0.822080000000     0.257500000000    -0.450003   
O115     O      0.122940000000     0.795220000000     0.317740000000    -0.451289   
O116     O      0.158440000000     0.863700000000     0.295160000000    -0.451713   
O117     O      0.192460000000     0.861750000000     0.289470000000    -0.438072   
O118     O      0.157330000000     0.793780000000     0.314080000000    -0.439293   
O119     O      0.167980000000     0.819370000000     0.253050000000    -0.445408   
O120     O      0.181840000000     0.836090000000     0.350440000000    -0.450885   
O121     O      0.975210000000     0.484770000000     0.417640000000    -0.439767   
O122     O      0.978620000000     0.501080000000     0.515310000000    -0.450222   
O123     O      0.991740000000     0.527080000000     0.454010000000    -0.449277   
O124     O      0.962250000000     0.459100000000     0.478290000000    -0.440851   
O125     O      0.999130000000     0.463010000000     0.483650000000    -0.450678   
O126     O      0.028510000000     0.530390000000     0.456340000000    -0.452011   
O127     O      0.016000000000     0.505900000000     0.518260000000    -0.451466   
O128     O      0.011820000000     0.487890000000     0.421210000000    -0.451376   
O129     O      0.826810000000     0.169400000000     0.687310000000    -0.454499   
O130     O      0.812240000000     0.155470000000     0.589560000000    -0.450791   
O131     O      0.801190000000     0.128150000000     0.649320000000    -0.450377   
O132     O      0.837920000000     0.196710000000     0.628010000000    -0.450368   
O133     O      0.871040000000     0.193520000000     0.618690000000    -0.44664    
O134     O      0.835100000000     0.125750000000     0.644770000000    -0.45032    
O135     O      0.844860000000     0.150990000000     0.583400000000    -0.448618   
O136     O      0.861150000000     0.168220000000     0.680450000000    -0.437004   
O137     O      0.640490000000     0.819820000000     0.752870000000    -0.450791   
O138     O      0.647590000000     0.836930000000     0.850540000000    -0.449597   
O139     O      0.661420000000     0.862210000000     0.789200000000    -0.440264   
O140     O      0.626460000000     0.794300000000     0.814380000000    -0.449676   
O141     O      0.661460000000     0.793800000000     0.816120000000    -0.447575   
O142     O      0.696360000000     0.861720000000     0.790450000000    -0.452061   
O143     O      0.682500000000     0.836360000000     0.852040000000    -0.438916   
O144     O      0.675310000000     0.818960000000     0.754670000000    -0.451974   
O145     O      0.660600000000     0.900620000000     0.774060000000    -0.293739   
O146     O      0.926510000000     0.415380000000     0.470140000000    -0.291321   
O147     O      0.158300000000     0.755570000000     0.329680000000    -0.293267   
O148     O      0.490190000000     0.566430000000     0.946050000000    -0.292587   
O149     O      0.232480000000     0.899470000000     0.275460000000    -0.292487   
O150     O      0.404940000000     0.232160000000     0.110710000000    -0.293191   
O151     O      0.629330000000     0.774600000000     0.401110000000    -0.294893   
O152     O      0.703640000000     0.839610000000     0.909390000000    -0.294064   
O153     O      0.831370000000     0.737150000000     0.165750000000    -0.293555   
O154     O      0.664710000000     0.902310000000     0.329140000000    -0.294181   
O155     O      0.040620000000     0.546630000000     0.868690000000    -0.29434    
O156     O      0.948930000000     0.463500000000     0.363980000000    -0.290958   
O157     O      0.832500000000     0.591320000000     0.113280000000    -0.289653   
O158     O      0.372010000000     0.193430000000     0.744480000000    -0.293544   
O159     O      0.360040000000     0.216330000000     0.536600000000    -0.29411    
O160     O      0.501270000000     0.073470000000     0.492950000000    -0.293635   
O161     O      0.165070000000     0.402990000000     0.830600000000    -0.293294   
O162     O      0.159430000000     0.253630000000     0.778070000000    -0.293266   
O163     O      0.475760000000     0.442670000000     0.570050000000    -0.293802   
O164     O      0.463230000000     0.502940000000     0.079630000000    -0.293398   
O165     O      0.890530000000     0.178740000000     0.731780000000    -0.294173   
O166     O      0.801130000000     0.176460000000     0.237910000000    -0.294843   
O167     O      0.192140000000     0.368570000000     0.696130000000    -0.293613   
O168     O      0.142290000000     0.280230000000     0.908000000000    -0.295981   
O169     O      0.902110000000     0.234460000000     0.166670000000    -0.293567   
O170     O      0.236430000000     0.323850000000     0.334000000000    -0.293305   
O171     O      0.502790000000     0.956140000000     0.864990000000    -0.293026   
O172     O      0.468720000000     0.948890000000     0.071950000000    -0.294205   
O173     O      0.572950000000     0.068000000000     0.994690000000    -0.293075   
O174     O      0.174720000000     0.796980000000     0.696640000000    -0.293571   
O175     O      0.135820000000     0.848750000000     0.905530000000    -0.295613   
O176     O      0.429800000000     0.001510000000     0.936420000000    -0.29309    
O177     O      0.786560000000     0.624280000000     0.037400000000    -0.29038    
O178     O      0.876630000000     0.704270000000     0.240390000000    -0.29553    
O179     O      0.570140000000     0.492630000000     0.500300000000    -0.293006   
O180     O      0.904860000000     0.736960000000     0.662990000000    -0.29358    


