data_structure

_audit_creation_method RASPA-1.0
_audit_creation_date 2023-5-19
_audit_author_name 'Poobodin Mano'

_cell_length_a    38.4694
_cell_length_b    38.4789
_cell_length_c    38.4758
_cell_angle_alpha 90
_cell_angle_beta  90
_cell_angle_gamma 90
_cell_volume      56954.2

_symmetry_cell_setting          triclinic
_symmetry_space_group_name_Hall 'P 1'
_symmetry_space_group_name_H-M  'P 1'
_symmetry_Int_Tables_number     1

_symmetry_equiv_pos_as_xyz 'x,y,z'

loop_
_atom_site_label
_atom_site_type_symbol
_atom_site_fract_x
_atom_site_fract_y
_atom_site_fract_z
_atom_site_charge
C1       C      0.987410000000     0.049140000000     0.485040000000     0.434583   
C2       C      0.993230000000     0.916240000000     0.487520000000     0.438282   
C3       C      0.923240000000     0.980510000000     0.487520000000     0.434486   
C4       C      0.056230000000     0.983680000000     0.484910000000     0.438755   
C5       C      0.988440000000     0.489900000000     0.413750000000     0.438593   
C6       C      0.985570000000     0.475350000000     0.546050000000     0.439274   
C7       C      0.986330000000     0.416400000000     0.472670000000     0.438627   
C8       C      0.987650000000     0.548780000000     0.485910000000     0.43376    
C9       C      0.556090000000     0.986600000000     0.499530000000     0.438826   
C10      C      0.423510000000     0.990380000000     0.488910000000     0.434765   
C11      C      0.484970000000     0.990570000000     0.559890000000     0.433711   
C12      C      0.495530000000     0.986290000000     0.427330000000     0.439721   
C13      C      0.481790000000     0.989670000000     0.059980000000     0.43446    
C14      C      0.477930000000     0.998410000000     0.927280000000     0.43926    
C15      C      0.479740000000     0.059800000000     0.997200000000     0.434079   
C16      C      0.479950000000     0.927100000000     0.989790000000     0.435018   
C17      C      0.991720000000     0.484360000000     0.046360000000     0.434685   
C18      C      0.986770000000     0.483020000000     0.913500000000     0.433635   
C19      C      0.055750000000     0.485270000000     0.976350000000     0.439575   
C20      C      0.922880000000     0.482300000000     0.982760000000     0.434501   
C21      C      0.423050000000     0.491900000000     0.988610000000     0.434976   
C22      C      0.556060000000     0.495450000000     0.988550000000     0.438454   
C23      C      0.491780000000     0.426870000000     0.991800000000     0.440167   
C24      C      0.489410000000     0.559780000000     0.985620000000     0.439119   
C25      C      0.647580000000     0.497210000000     0.959440000000    -0.142434   
C26      C      0.869480000000     0.450790000000     0.982810000000     0.0742327  
C27      C      0.869010000000     0.512190000000     0.988220000000     0.0746273  
C28      C      0.833180000000     0.449940000000     0.984350000000    -0.0949322  
C29      C      0.758610000000     0.499620000000     0.015920000000    -0.037818   
C30      C      0.722320000000     0.500960000000     0.016490000000    -0.0319396  
C31      C      0.776040000000     0.480770000000     0.989960000000    -0.00649472 
C32      C      0.832810000000     0.512210000000     0.990430000000    -0.0953162  
C33      C      0.702800000000     0.483880000000     0.990800000000    -0.0165879  
C34      C      0.644770000000     0.483070000000     0.020120000000    -0.108335   
C35      C      0.720210000000     0.464660000000     0.965080000000    -0.0320773  
C36      C      0.608790000000     0.487190000000     0.018930000000     0.0792277  
C37      C      0.611530000000     0.503300000000     0.959210000000     0.185117   
C38      C      0.756510000000     0.462880000000     0.964820000000    -0.0379177  
C39      C      0.814500000000     0.480880000000     0.988370000000     0.0498993  
C40      C      0.664450000000     0.487380000000     0.990010000000     0.0707903  
C41      C      0.146650000000     0.516070000000     0.971160000000    -0.142502   
C42      C      0.369010000000     0.495030000000     0.018820000000     0.0744765  
C43      C      0.369690000000     0.485800000000     0.957880000000     0.074642   
C44      C      0.332680000000     0.494250000000     0.018980000000    -0.0947681  
C45      C      0.256440000000     0.513430000000     0.004010000000    -0.0377766  
C46      C      0.220130000000     0.512970000000     0.002300000000    -0.0318442  
C47      C      0.276050000000     0.487430000000     0.987490000000    -0.00636629 
C48      C      0.333450000000     0.484330000000     0.957210000000    -0.0951047  
C49      C      0.202780000000     0.486200000000     0.984520000000    -0.0165089  
C50      C      0.145350000000     0.455970000000     0.987760000000    -0.108162   
C51      C      0.222400000000     0.459860000000     0.968570000000    -0.0318833  
C52      C      0.109270000000     0.456330000000     0.984510000000     0.0799421  
C53      C      0.110440000000     0.515390000000     0.966020000000     0.186046   
C54      C      0.258680000000     0.460600000000     0.969840000000    -0.0378403  
C55      C      0.314540000000     0.488650000000     0.987960000000     0.0497809  
C56      C      0.164350000000     0.486210000000     0.981740000000     0.0711321  
C57      C      0.492050000000     0.650790000000     0.954140000000    -0.141926   
C58      C      0.449410000000     0.873420000000     0.985060000000     0.0745681  
C59      C      0.510890000000     0.873510000000     0.989660000000     0.0745586  
C60      C      0.449090000000     0.837130000000     0.983680000000    -0.0951295  
C61      C      0.461990000000     0.761600000000     0.960340000000    -0.0378591  
C62      C      0.462850000000     0.725260000000     0.959890000000    -0.0321004  
C63      C      0.480520000000     0.780200000000     0.985740000000    -0.00654348 
C64      C      0.511460000000     0.837250000000     0.988930000000    -0.095222   
C65      C      0.481730000000     0.706930000000     0.985190000000    -0.0165067  
C66      C      0.478200000000     0.649400000000     0.014910000000    -0.108207   
C67      C      0.499870000000     0.725550000000     0.010830000000    -0.031939   
C68      C      0.481160000000     0.613350000000     0.014300000000     0.0797388  
C69      C      0.497030000000     0.614530000000     0.954450000000     0.184429   
C70      C      0.499460000000     0.761830000000     0.010960000000    -0.0376693  
C71      C      0.480330000000     0.818680000000     0.985950000000     0.0499812  
C72      C      0.483260000000     0.668470000000     0.984580000000     0.0707946  
C73      C      0.495250000000     0.336480000000     0.024330000000    -0.142349   
C74      C      0.449300000000     0.113590000000     0.002010000000     0.0734879  
C75      C      0.510510000000     0.113370000000     0.994640000000     0.0743325  
C76      C      0.449000000000     0.149920000000     0.002120000000    -0.0949818  
C77      C      0.463070000000     0.226370000000     0.021940000000    -0.0378229  
C78      C      0.464540000000     0.262680000000     0.021280000000    -0.0319114  
C79      C      0.480370000000     0.206740000000     0.996470000000    -0.00647204 
C80      C      0.511070000000     0.149610000000     0.994120000000    -0.0953666  
C81      C      0.482840000000     0.279960000000     0.994810000000    -0.016568   
C82      C      0.479990000000     0.336950000000     0.963860000000    -0.10836    
C83      C      0.499580000000     0.260290000000     0.969010000000    -0.0318976  
C84      C      0.483460000000     0.372970000000     0.963730000000     0.0802885  
C85      C      0.500620000000     0.372640000000     0.023220000000     0.186139   
C86      C      0.498540000000     0.224040000000     0.969960000000    -0.0379364  
C87      C      0.480090000000     0.168280000000     0.997740000000     0.0496233  
C88      C      0.485340000000     0.318380000000     0.994490000000     0.0711494  
C89      C      0.447440000000     0.006690000000     0.836400000000    -0.142219   
C90      C      0.478060000000     0.961630000000     0.614200000000     0.0740707  
C91      C      0.485650000000     0.022780000000     0.612770000000     0.0737655  
C92      C      0.476210000000     0.962230000000     0.650440000000    -0.0951172  
C93      C      0.504760000000     0.012860000000     0.725140000000    -0.0377074  
C94      C      0.504450000000     0.013460000000     0.761440000000    -0.0319607  
C95      C      0.479000000000     0.994710000000     0.706720000000    -0.00653779 
C96      C      0.484460000000     0.024230000000     0.649020000000    -0.0952842  
C97      C      0.478090000000     0.996310000000     0.780010000000    -0.0165129  
C98      C      0.507760000000     0.990870000000     0.837460000000    -0.108318   
C99      C      0.452130000000     0.978410000000     0.761600000000    -0.0320558  
C100     C      0.507070000000     0.992480000000     0.873610000000     0.07989    
C101     C      0.447760000000     0.010230000000     0.872820000000     0.185706   
C102     C      0.452750000000     0.977370000000     0.725280000000    -0.0378765  
C103     C      0.479720000000     0.993730000000     0.668240000000     0.0496618  
C104     C      0.477620000000     0.997420000000     0.818500000000     0.070958   
C105     C      0.501040000000     0.955120000000     0.336520000000    -0.142177   
C106     C      0.452940000000     0.984390000000     0.114590000000     0.0741888  
C107     C      0.514260000000     0.990490000000     0.112660000000     0.0745211  
C108     C      0.453760000000     0.983160000000     0.150890000000    -0.0947966  
C109     C      0.469160000000     0.960630000000     0.226130000000    -0.0378583  
C110     C      0.471090000000     0.960300000000     0.262440000000    -0.0319916  
C111     C      0.486900000000     0.986110000000     0.206900000000    -0.00638921 
C112     C      0.515940000000     0.989880000000     0.148880000000    -0.0950862  
C113     C      0.490330000000     0.985790000000     0.280160000000    -0.0164232  
C114     C      0.487820000000     0.016050000000     0.337530000000    -0.108043   
C115     C      0.507760000000     0.011460000000     0.260910000000    -0.0318311  
C116     C      0.490280000000     0.015530000000     0.373640000000     0.0801892  
C117     C      0.505410000000     0.955520000000     0.372850000000     0.185695   
C118     C      0.506240000000     0.011490000000     0.224650000000    -0.0376883  
C119     C      0.485490000000     0.986230000000     0.168410000000     0.0497999  
C120     C      0.492530000000     0.985530000000     0.318630000000     0.070915   
C121     C      0.955120000000     0.467310000000     0.636850000000    -0.1424     
C122     C      0.982160000000     0.512900000000     0.859400000000     0.0733648  
C123     C      0.989030000000     0.451660000000     0.860210000000     0.0741659  
C124     C      0.981510000000     0.512790000000     0.823080000000    -0.0951237  
C125     C      0.011410000000     0.462340000000     0.748590000000    -0.0377582  
C126     C      0.011580000000     0.461360000000     0.712300000000    -0.0319586  
C127     C      0.985490000000     0.480800000000     0.766490000000    -0.00651629 
C128     C      0.989040000000     0.450690000000     0.823960000000    -0.0952188  
C129     C      0.985540000000     0.478420000000     0.693210000000    -0.0164857  
C130     C      0.015620000000     0.482450000000     0.635800000000    -0.108182   
C131     C      0.959550000000     0.496820000000     0.711090000000    -0.0320689  
C132     C      0.015020000000     0.480470000000     0.599660000000     0.0802238  
C133     C      0.955520000000     0.463420000000     0.600470000000     0.185714   
C134     C      0.959700000000     0.498250000000     0.747420000000    -0.0379161  
C135     C      0.985250000000     0.481470000000     0.804990000000     0.0496262  
C136     C      0.985300000000     0.476580000000     0.654730000000     0.0710002  
C137     C      0.019510000000     0.498290000000     0.323280000000    -0.14262    
C138     C      0.995670000000     0.454310000000     0.100390000000     0.0744855  
C139     C      0.988970000000     0.515570000000     0.099730000000     0.0746454  
C140     C      0.995700000000     0.454240000000     0.136700000000    -0.0950392  
C141     C      0.016160000000     0.468110000000     0.212720000000    -0.037837   
C142     C      0.015690000000     0.469220000000     0.249030000000    -0.0318979  
C143     C      0.990820000000     0.485910000000     0.193360000000    -0.00643753 
C144     C      0.988360000000     0.516370000000     0.136000000000    -0.095177   
C145     C      0.989560000000     0.487690000000     0.266640000000    -0.0165516  
C146     C      0.958840000000     0.483790000000     0.323770000000    -0.108153   
C147     C      0.963950000000     0.505080000000     0.247280000000    -0.031966   
C148     C      0.959180000000     0.485540000000     0.359940000000     0.0794852  
C149     C      0.018870000000     0.501960000000     0.359650000000     0.185071   
C150     C      0.964720000000     0.504400000000     0.210980000000    -0.0377886  
C151     C      0.991710000000     0.485480000000     0.154870000000     0.0499556  
C152     C      0.989390000000     0.489410000000     0.305110000000     0.0707721  
C153     C      0.147710000000     0.981000000000     0.455160000000    -0.142365   
C154     C      0.370730000000     0.022370000000     0.483090000000     0.074306   
C155     C      0.368980000000     0.961210000000     0.490540000000     0.0746811  
C156     C      0.334420000000     0.023750000000     0.482250000000    -0.09477    
C157     C      0.258060000000     0.011650000000     0.460540000000    -0.0378752  
C158     C      0.221700000000     0.011080000000     0.460220000000    -0.0319195  
C159     C      0.276570000000     0.994130000000     0.486700000000    -0.00643984 
C160     C      0.332720000000     0.961750000000     0.490390000000    -0.0952238  
C161     C      0.203250000000     0.993510000000     0.486400000000    -0.0166347  
C162     C      0.145180000000     0.997470000000     0.515250000000    -0.108464   
C163     C      0.221790000000     0.976660000000     0.512950000000    -0.0319309  
C164     C      0.109160000000     0.993840000000     0.514260000000     0.0789593  
C165     C      0.111560000000     0.975390000000     0.455200000000     0.185239   
C166     C      0.258090000000     0.976770000000     0.512970000000    -0.0379547  
C167     C      0.315050000000     0.993250000000     0.486330000000     0.0497643  
C168     C      0.164790000000     0.991470000000     0.485400000000     0.0709342  
C169     C      0.648160000000     0.013160000000     0.505720000000    -0.142575   
C170     C      0.868880000000     0.981310000000     0.457840000000     0.0743624  
C171     C      0.870210000000     0.977180000000     0.519320000000     0.0746365  
C172     C      0.832560000000     0.981200000000     0.458150000000    -0.0951859  
C173     C      0.758040000000     0.953950000000     0.510160000000    -0.03787    
C174     C      0.721730000000     0.954580000000     0.511560000000    -0.0320325  
C175     C      0.776230000000     0.978880000000     0.490660000000    -0.0065059  
C176     C      0.833930000000     0.976400000000     0.520520000000    -0.0951011  
C177     C      0.703000000000     0.980510000000     0.493940000000    -0.0165995  
C178     C      0.644380000000     0.952490000000     0.491770000000    -0.108443   
C179     C      0.721200000000     0.005410000000     0.474400000000    -0.0319922  
C180     C      0.608290000000     0.954630000000     0.494300000000     0.0793256  
C181     C      0.611890000000     0.014330000000     0.510240000000     0.186018   
C182     C      0.757470000000     0.004430000000     0.472530000000    -0.0377277  
C183     C      0.814730000000     0.978670000000     0.489730000000     0.0499475  
C184     C      0.664620000000     0.982130000000     0.496670000000     0.070939   
C185     C      0.000620000000     0.825380000000     0.517970000000    -0.142432   
C186     C      0.957470000000     0.602580000000     0.491380000000     0.0741877  
C187     C      0.018840000000     0.602270000000     0.485510000000     0.0735503  
C188     C      0.957260000000     0.638880000000     0.492270000000    -0.0950219  
C189     C      0.970730000000     0.714690000000     0.514100000000    -0.037977   
C190     C      0.971410000000     0.751030000000     0.513890000000    -0.0320413  
C191     C      0.988640000000     0.695740000000     0.488540000000    -0.00650684 
C192     C      0.019490000000     0.638560000000     0.485700000000    -0.0952621  
C193     C      0.989460000000     0.769040000000     0.487750000000    -0.0166009  
C194     C      0.984500000000     0.826460000000     0.457740000000    -0.108183   
C195     C      0.006940000000     0.750070000000     0.461910000000    -0.03199    
C196     C      0.986540000000     0.862630000000     0.458310000000     0.0788946  
C197     C      0.004700000000     0.861710000000     0.517490000000     0.185454   
C198     C      0.006760000000     0.713760000000     0.462460000000    -0.0378604  
C199     C      0.988470000000     0.657240000000     0.488990000000     0.0495775  
C200     C      0.990910000000     0.807520000000     0.487940000000     0.07079    
C201     C      0.014760000000     0.324990000000     0.465780000000    -0.142568   
C202     C      0.989310000000     0.103600000000     0.514530000000     0.0743082  
C203     C      0.981930000000     0.102050000000     0.453360000000     0.0744569  
C204     C      0.988610000000     0.139910000000     0.514150000000    -0.0948757  
C205     C      0.009190000000     0.215530000000     0.498900000000    -0.0377364  
C206     C      0.009340000000     0.251810000000     0.496870000000    -0.0319483  
C207     C      0.983480000000     0.196140000000     0.481680000000    -0.00639698 
C208     C      0.980570000000     0.138290000000     0.452130000000    -0.0949236  
C209     C      0.983470000000     0.269400000000     0.478020000000    -0.0165012  
C210     C      0.954120000000     0.327410000000     0.480230000000    -0.108298   
C211     C      0.957410000000     0.250040000000     0.461310000000    -0.0319707  
C212     C      0.955430000000     0.363540000000     0.477700000000     0.0791113  
C213     C      0.015100000000     0.361280000000     0.461360000000     0.186217   
C214     C      0.957560000000     0.213750000000     0.462910000000    -0.0378787  
C215     C      0.984110000000     0.157640000000     0.482710000000     0.0497341  
C216     C      0.984180000000     0.307820000000     0.475120000000     0.0708002  
H1       H      0.882100000000     0.537090000000     0.989770000000     0.0248491  
H2       H      0.594640000000     0.481970000000     0.042750000000     0.0216709  
H3       H      0.769340000000     0.448330000000     0.944420000000     0.037889   
H4       H      0.709560000000     0.516170000000     0.036450000000     0.0359792  
H5       H      0.657030000000     0.475730000000     0.044390000000     0.0552466  
H6       H      0.773090000000     0.513460000000     0.035710000000     0.0378918  
H7       H      0.662830000000     0.502540000000     0.936330000000     0.0651742  
H8       H      0.819210000000     0.536710000000     0.993190000000     0.052638   
H9       H      0.819850000000     0.425190000000     0.982800000000     0.0527353  
H10      H      0.705710000000     0.451150000000     0.945070000000     0.0363496  
H11      H      0.883020000000     0.426260000000     0.979860000000     0.024979   
H12      H      0.613080000000     0.523860000000     0.908660000000     0.0855885  
H13      H      0.573720000000     0.531530000000     0.930550000000     0.10141    
H14      H      0.383270000000     0.482440000000     0.933420000000     0.0249452  
H15      H      0.095760000000     0.432470000000     0.991020000000     0.0237224  
H16      H      0.273190000000     0.440110000000     0.957090000000     0.0379237  
H17      H      0.205580000000     0.533510000000     0.014930000000     0.0365008  
H18      H      0.158220000000     0.432240000000     0.995790000000     0.0557618  
H19      H      0.269210000000     0.534520000000     0.017600000000     0.0379058  
H20      H      0.161310000000     0.539220000000     0.964570000000     0.0654634  
H21      H      0.320300000000     0.480280000000     0.932640000000     0.0526582  
H22      H      0.318900000000     0.497520000000     0.043320000000     0.0526634  
H23      H      0.209690000000     0.439070000000     0.954460000000     0.0360469  
H24      H      0.382080000000     0.499220000000     0.043430000000     0.0248937  
H25      H      0.110470000000     0.565120000000     0.943510000000     0.0869489  
H26      H      0.071350000000     0.542230000000     0.937710000000     0.106385   
H27      H      0.535600000000     0.886850000000     0.992010000000     0.0248959  
H28      H      0.475660000000     0.599890000000     0.038450000000     0.0239119  
H29      H      0.513770000000     0.775560000000     0.030960000000     0.0380145  
H30      H      0.448580000000     0.711470000000     0.939910000000     0.0363497  
H31      H      0.471400000000     0.662250000000     0.039030000000     0.0558014  
H32      H      0.447330000000     0.775200000000     0.940510000000     0.0378205  
H33      H      0.497650000000     0.665520000000     0.930770000000     0.0650249  
H34      H      0.536170000000     0.823820000000     0.990430000000     0.0526735  
H35      H      0.424490000000     0.823610000000     0.981540000000     0.0528038  
H36      H      0.514890000000     0.712040000000     0.030440000000     0.0361792  
H37      H      0.424610000000     0.886720000000     0.983580000000     0.0250797  
H38      H      0.516660000000     0.614770000000     0.903520000000     0.0855109  
H39      H      0.523940000000     0.575660000000     0.925770000000     0.101684   
H40      H      0.535130000000     0.099990000000     0.991650000000     0.0250705  
H41      H      0.477560000000     0.386130000000     0.939510000000     0.0236587  
H42      H      0.511880000000     0.209510000000     0.949870000000     0.0378789  
H43      H      0.451310000000     0.277290000000     0.041390000000     0.0364431  
H44      H      0.472450000000     0.323750000000     0.940150000000     0.0557443  
H45      H      0.449030000000     0.213610000000     0.042750000000     0.0378354  
H46      H      0.501270000000     0.322130000000     0.047840000000     0.0654014  
H47      H      0.535680000000     0.162950000000     0.991080000000     0.052728   
H48      H      0.424500000000     0.163530000000     0.004880000000     0.0523333  
H49      H      0.514110000000     0.272950000000     0.948480000000     0.036081   
H50      H      0.424620000000     0.100310000000     0.005010000000     0.023821   
H51      H      0.521870000000     0.373260000000     0.073500000000     0.0867439  
H52      H      0.528550000000     0.411940000000     0.050160000000     0.105956   
H53      H      0.489370000000     0.047020000000     0.598880000000     0.0233557  
H54      H      0.530950000000     0.985680000000     0.886970000000     0.0239747  
H55      H      0.432480000000     0.963350000000     0.711670000000     0.0377244  
H56      H      0.524600000000     0.027700000000     0.775000000000     0.0360399  
H57      H      0.531690000000     0.983730000000     0.824450000000     0.0558777  
H58      H      0.525420000000     0.026240000000     0.711460000000     0.0375949  
H59      H      0.424300000000     0.013550000000     0.821830000000     0.0653078  
H60      H      0.487000000000     0.049130000000     0.661900000000     0.052239   
H61      H      0.472730000000     0.938070000000     0.664470000000     0.0526213  
H62      H      0.431600000000     0.964900000000     0.775340000000     0.0363723  
H63      H      0.475560000000     0.936630000000     0.601450000000     0.0248488  
H64      H      0.397650000000     0.031880000000     0.873310000000     0.0868685  
H65      H      0.420110000000     0.036510000000     0.912780000000     0.106665   
H66      H      0.538500000000     0.993370000000     0.098590000000     0.0250983  
H67      H      0.484830000000     0.039750000000     0.386980000000     0.0239377  
H68      H      0.519960000000     0.031570000000     0.210460000000     0.0380258  
H69      H      0.457300000000     0.940320000000     0.276700000000     0.036489   
H70      H      0.481370000000     0.040190000000     0.324530000000     0.0558084  
H71      H      0.454230000000     0.940660000000     0.213060000000     0.0378499  
H72      H      0.506580000000     0.931620000000     0.321970000000     0.0652904  
H73      H      0.541020000000     0.991990000000     0.161530000000     0.0526508  
H74      H      0.429630000000     0.980490000000     0.165160000000     0.0526679  
H75      H      0.523000000000     0.031250000000     0.273910000000     0.036126   
H76      H      0.427800000000     0.982270000000     0.102030000000     0.0249161  
H77      H      0.524990000000     0.904570000000     0.373290000000     0.0867631  
H78      H      0.531200000000     0.927080000000     0.412550000000     0.105977   
H79      H      0.992000000000     0.427170000000     0.873850000000     0.0250285  
H80      H      0.039000000000     0.486870000000     0.586280000000     0.0238568  
H81      H      0.939310000000     0.512490000000     0.760620000000     0.0377607  
H82      H      0.031750000000     0.446770000000     0.699150000000     0.0360901  
H83      H      0.039590000000     0.489460000000     0.648820000000     0.0558148  
H84      H      0.031730000000     0.448850000000     0.762680000000     0.0378211  
H85      H      0.931860000000     0.460820000000     0.651390000000     0.0653214  
H86      H      0.991680000000     0.425910000000     0.810840000000     0.0526212  
H87      H      0.978710000000     0.537150000000     0.809250000000     0.0522863  
H88      H      0.939280000000     0.510310000000     0.696950000000     0.0364167  
H89      H      0.979510000000     0.537740000000     0.872430000000     0.0237682  
H90      H      0.905260000000     0.442100000000     0.599940000000     0.0866288  
H91      H      0.927850000000     0.437230000000     0.560510000000     0.105953   
H92      H      0.986280000000     0.540120000000     0.086150000000     0.025058   
H93      H      0.935070000000     0.479310000000     0.373150000000     0.0236265  
H94      H      0.944740000000     0.518140000000     0.196660000000     0.0379441  
H95      H      0.035650000000     0.455480000000     0.263390000000     0.0360978  
H96      H      0.934900000000     0.477100000000     0.310520000000     0.0557385  
H97      H      0.036660000000     0.453820000000     0.199750000000     0.0377848  
H98      H      0.042960000000     0.504630000000     0.308960000000     0.0650773  
H99      H      0.985580000000     0.541090000000     0.149190000000     0.0526668  
H100     H      0.998200000000     0.429800000000     0.150450000000     0.052734   
H101     H      0.943680000000     0.519730000000     0.260210000000     0.0360872  
H102     H      0.998470000000     0.429510000000     0.087300000000     0.0248865  
H103     H      0.069310000000     0.522850000000     0.360710000000     0.086109   
H104     H      0.046440000000     0.527640000000     0.400000000000     0.105515   
H105     H      0.381580000000     0.936220000000     0.493840000000     0.025048   
H106     H      0.095170000000     0.000140000000     0.537900000000     0.0229101  
H107     H      0.271760000000     0.963280000000     0.533560000000     0.037893   
H108     H      0.207970000000     0.024340000000     0.439520000000     0.036437   
H109     H      0.157570000000     0.005490000000     0.539240000000     0.05554    
H110     H      0.271720000000     0.025080000000     0.439920000000     0.037898   
H111     H      0.162860000000     0.974550000000     0.432280000000     0.0653253  
H112     H      0.318580000000     0.937560000000     0.493230000000     0.0526419  
H113     H      0.321600000000     0.048630000000     0.479140000000     0.0526404  
H114     H      0.208220000000     0.962650000000     0.533260000000     0.0357375  
H115     H      0.384790000000     0.046620000000     0.480270000000     0.0247143  
H116     H      0.112840000000     0.953210000000     0.405330000000     0.0867242  
H117     H      0.073550000000     0.946330000000     0.427510000000     0.106093   
H118     H      0.884080000000     0.975650000000     0.543810000000     0.0251393  
H119     H      0.593770000000     0.931170000000     0.488550000000     0.0217508  
H120     H      0.770910000000     0.024080000000     0.457490000000     0.0379247  
H121     H      0.708320000000     0.935240000000     0.527010000000     0.0360614  
H122     H      0.656320000000     0.927890000000     0.485020000000     0.0553268  
H123     H      0.771910000000     0.933880000000     0.524220000000     0.0379412  
H124     H      0.663760000000     0.035920000000     0.511510000000     0.065463   
H125     H      0.821000000000     0.974660000000     0.545470000000     0.0527904  
H126     H      0.818540000000     0.982770000000     0.433790000000     0.0526936  
H127     H      0.707330000000     0.025570000000     0.460480000000     0.0365461  
H128     H      0.881670000000     0.983250000000     0.432800000000     0.0247331  
H129     H      0.613800000000     0.064860000000     0.530820000000     0.0867243  
H130     H      0.573560000000     0.043980000000     0.536690000000     0.105951   
H131     H      0.043450000000     0.588820000000     0.482780000000     0.0230307  
H132     H      0.979790000000     0.876080000000     0.434480000000     0.0228928  
H133     H      0.020550000000     0.699740000000     0.442310000000     0.0375934  
H134     H      0.957660000000     0.765090000000     0.534050000000     0.0364753  
H135     H      0.977120000000     0.813440000000     0.433880000000     0.0555155  
H136     H      0.956700000000     0.701390000000     0.534570000000     0.0378407  
H137     H      0.007480000000     0.810810000000     0.541110000000     0.0653189  
H138     H      0.044180000000     0.651920000000     0.483450000000     0.052071   
H139     H      0.932730000000     0.652480000000     0.494740000000     0.0527721  
H140     H      0.021300000000     0.763340000000     0.441650000000     0.0357382  
H141     H      0.932670000000     0.589370000000     0.493520000000     0.0251483  
H142     H      0.026960000000     0.862030000000     0.567340000000     0.0867011  
H143     H      0.032010000000     0.901320000000     0.544640000000     0.105943   
H144     H      0.979300000000     0.088120000000     0.429020000000     0.0251222  
H145     H      0.931700000000     0.377540000000     0.483640000000     0.021543   
H146     H      0.937320000000     0.199420000000     0.449570000000     0.0378088  
H147     H      0.029630000000     0.266150000000     0.510130000000     0.0364877  
H148     H      0.929840000000     0.314960000000     0.487210000000     0.0551438  
H149     H      0.029600000000     0.202600000000     0.513360000000     0.0379024  
H150     H      0.037820000000     0.309930000000     0.459780000000     0.0655005  
H151     H      0.977340000000     0.151110000000     0.427270000000     0.0526719  
H152     H      0.991220000000     0.154020000000     0.538380000000     0.0525599  
H153     H      0.937310000000     0.262950000000     0.446390000000     0.0358997  
H154     H      0.992740000000     0.090890000000     0.539450000000     0.024756   
H155     H      0.065520000000     0.360580000000     0.440420000000     0.0869945  
H156     H      0.043730000000     0.400420000000     0.435010000000     0.106709   
N1       N      0.591880000000     0.495960000000     0.988620000000    -0.217229   
N2       N      0.887260000000     0.481720000000     0.984570000000    -0.199039   
N3       N      0.597870000000     0.519330000000     0.930720000000    -0.21831    
N4       N      0.091560000000     0.485940000000     0.975000000000    -0.216826   
N5       N      0.387390000000     0.490940000000     0.988470000000    -0.199034   
N6       N      0.095810000000     0.542980000000     0.949280000000    -0.218893   
N7       N      0.489640000000     0.595610000000     0.984360000000    -0.216599   
N8       N      0.480070000000     0.891480000000     0.988090000000    -0.199131   
N9       N      0.512200000000     0.600020000000     0.925900000000    -0.218431   
N10      N      0.492540000000     0.391090000000     0.993230000000    -0.216985   
N11      N      0.479820000000     0.095450000000     0.998130000000    -0.199454   
N12      N      0.516770000000     0.387590000000     0.050980000000    -0.218915   
N13      N      0.477240000000     0.000910000000     0.891520000000    -0.216526   
N14      N      0.482800000000     0.991680000000     0.595480000000    -0.199333   
N15      N      0.419780000000     0.025880000000     0.887900000000    -0.21898    
N16      N      0.497710000000     0.985450000000     0.391560000000    -0.216701   
N17      N      0.482970000000     0.988090000000     0.095600000000    -0.198922   
N18      N      0.520180000000     0.927010000000     0.387830000000    -0.218852   
N19      N      0.985090000000     0.472410000000     0.581760000000    -0.216767   
N20      N      0.985900000000     0.482550000000     0.877850000000    -0.19933    
N21      N      0.927470000000     0.447890000000     0.585380000000    -0.218805   
N22      N      0.989090000000     0.493130000000     0.378080000000    -0.217166   
N23      N      0.992260000000     0.484740000000     0.082020000000    -0.199027   
N24      N      0.046930000000     0.517160000000     0.375050000000    -0.218998   
N25      N      0.092070000000     0.983840000000     0.484440000000    -0.216991   
N26      N      0.387880000000     0.991330000000     0.487340000000    -0.199067   
N27      N      0.097710000000     0.958530000000     0.427270000000    -0.218856   
N28      N      0.591820000000     0.985450000000     0.502020000000    -0.217159   
N29      N      0.887580000000     0.979600000000     0.488220000000    -0.198962   
N30      N      0.598250000000     0.043190000000     0.525600000000    -0.218752   
N31      N      0.995350000000     0.880470000000     0.488060000000    -0.217018   
N32      N      0.988010000000     0.584400000000     0.487840000000    -0.199257   
N33      N      0.020940000000     0.876630000000     0.545230000000    -0.218831   
N34      N      0.985850000000     0.380690000000     0.469850000000    -0.217134   
N35      N      0.986200000000     0.084790000000     0.484340000000    -0.198863   
N36      N      0.043550000000     0.375620000000     0.445880000000    -0.218873   
Ni1      Ni     0.989100000000     0.982160000000     0.455390000000     0.999298   
Ni2      Ni     0.990270000000     0.983230000000     0.517090000000     1.00061    
Ni3      Ni     0.017790000000     0.482150000000     0.480460000000     1.00089    
Ni4      Ni     0.956110000000     0.483000000000     0.479300000000     0.99878    
Ni5      Ni     0.490810000000     0.019290000000     0.492670000000     1.00111    
Ni6      Ni     0.488800000000     0.957630000000     0.494580000000     1.00043    
Ni7      Ni     0.510690000000     0.993590000000     0.992750000000     1.00782    
Ni8      Ni     0.448940000000     0.993300000000     0.994510000000     0.995459   
Ni9      Ni     0.990020000000     0.452840000000     0.980190000000     1.00098    
Ni10     Ni     0.988550000000     0.514590000000     0.979690000000     1.00187    
Ni11     Ni     0.489550000000     0.491860000000     0.957880000000     1.00074    
Ni12     Ni     0.489490000000     0.494730000000     0.019480000000     1.00021    
O1       O      0.986970000000     0.031890000000     0.456490000000    -0.449731   
O2       O      0.991460000000     0.932430000000     0.458360000000    -0.454235   
O3       O      0.939400000000     0.980260000000     0.458330000000    -0.450278   
O4       O      0.038870000000     0.984190000000     0.456480000000    -0.453603   
O5       O      0.039980000000     0.984260000000     0.514070000000    -0.45525    
O6       O      0.940480000000     0.981800000000     0.516070000000    -0.449712   
O7       O      0.991610000000     0.933510000000     0.515960000000    -0.454055   
O8       O      0.989010000000     0.033000000000     0.514200000000    -0.449882   
O9       O      0.016810000000     0.486630000000     0.430910000000    -0.456751   
O10      O      0.014740000000     0.477570000000     0.529940000000    -0.451939   
O11      O      0.015220000000     0.432660000000     0.475970000000    -0.453597   
O12      O      0.016350000000     0.531790000000     0.484680000000    -0.452992   
O13      O      0.958590000000     0.532450000000     0.484540000000    -0.449896   
O14      O      0.957630000000     0.433430000000     0.474040000000    -0.453813   
O15      O      0.957130000000     0.477830000000     0.528840000000    -0.452951   
O16      O      0.959210000000     0.488300000000     0.429830000000    -0.451866   
O17      O      0.540310000000     0.015780000000     0.496490000000    -0.454189   
O18      O      0.441060000000     0.018760000000     0.488930000000    -0.449798   
O19      O      0.487150000000     0.018890000000     0.542380000000    -0.452943   
O20      O      0.494590000000     0.015640000000     0.443200000000    -0.452273   
O21      O      0.492510000000     0.958110000000     0.444850000000    -0.453089   
O22      O      0.485100000000     0.961190000000     0.544100000000    -0.451001   
O23      O      0.439300000000     0.961070000000     0.490960000000    -0.45065    
O24      O      0.538520000000     0.958230000000     0.498400000000    -0.454343   
O25      O      0.510140000000     0.991160000000     0.042450000000    -0.451799   
O26      O      0.507210000000     0.996330000000     0.943190000000    -0.453669   
O27      O      0.508590000000     0.043190000000     0.995190000000    -0.452811   
O28      O      0.508780000000     0.943890000000     0.990370000000    -0.451785   
O29      O      0.451010000000     0.943660000000     0.991080000000    -0.449291   
O30      O      0.450870000000     0.043050000000     0.997740000000    -0.451735   
O31      O      0.449610000000     0.996610000000     0.944760000000    -0.452478   
O32      O      0.452400000000     0.989960000000     0.044160000000    -0.449014   
O33      O      0.991970000000     0.455320000000     0.029930000000    -0.450164   
O34      O      0.988150000000     0.454340000000     0.930490000000    -0.45128    
O35      O      0.039700000000     0.456050000000     0.978060000000    -0.452072   
O36      O      0.940150000000     0.453740000000     0.982070000000    -0.449314   
O37      O      0.938980000000     0.511500000000     0.981900000000    -0.451887   
O38      O      0.038330000000     0.513640000000     0.977670000000    -0.453799   
O39      O      0.986500000000     0.512080000000     0.929910000000    -0.45262    
O40      O      0.990490000000     0.513070000000     0.029400000000    -0.45026    
O41      O      0.439860000000     0.490390000000     0.959840000000    -0.450896   
O42      O      0.539260000000     0.493350000000     0.959860000000    -0.45634    
O43      O      0.491150000000     0.442300000000     0.962210000000    -0.452129   
O44      O      0.488140000000     0.541710000000     0.957660000000    -0.455136   
O45      O      0.489230000000     0.544260000000     0.015170000000    -0.453486   
O46      O      0.490020000000     0.444920000000     0.019740000000    -0.453651   
O47      O      0.539310000000     0.495280000000     0.017440000000    -0.45439    
O48      O      0.439660000000     0.494190000000     0.017470000000    -0.449023   


