data_structure

_audit_creation_method RASPA-1.0
_audit_creation_date 2023-5-19
_audit_author_name 'Poobodin Mano'

_cell_length_a    38.5802
_cell_length_b    38.5961
_cell_length_c    38.5926
_cell_angle_alpha 90
_cell_angle_beta  90
_cell_angle_gamma 90
_cell_volume      57466.1

_symmetry_cell_setting          triclinic
_symmetry_space_group_name_Hall 'P 1'
_symmetry_space_group_name_H-M  'P 1'
_symmetry_Int_Tables_number     1

_symmetry_equiv_pos_as_xyz 'x,y,z'

loop_
_atom_site_label
_atom_site_type_symbol
_atom_site_fract_x
_atom_site_fract_y
_atom_site_fract_z
_atom_site_charge
C1       C      0.998710000000     0.066090000000     0.497760000000     0.437085   
C2       C      0.998810000000     0.933360000000     0.504470000000     0.437012   
C3       C      0.932220000000     0.999410000000     0.503310000000     0.437158   
C4       C      0.064930000000     0.999580000000     0.498990000000     0.433845   
C5       C      0.997390000000     0.499350000000     0.435960000000     0.434305   
C6       C      0.000300000000     0.500370000000     0.568670000000     0.436983   
C7       C      0.998690000000     0.433470000000     0.502520000000     0.434568   
C8       C      0.998860000000     0.566020000000     0.501890000000     0.434354   
C9       C      0.564890000000     0.991330000000     0.493030000000     0.433847   
C10      C      0.432160000000     0.987530000000     0.491440000000     0.437147   
C11      C      0.499720000000     0.988050000000     0.425670000000     0.437067   
C12      C      0.497640000000     0.990740000000     0.558380000000     0.434082   
C13      C      0.486250000000     0.061780000000     0.991500000000     0.436776   
C14      C      0.494570000000     0.929120000000     0.992920000000     0.436486   
C15      C      0.488120000000     0.994600000000     0.925720000000     0.437166   
C16      C      0.492560000000     0.996160000000     0.058400000000     0.4337     
C17      C      0.058080000000     0.493530000000     0.002020000000     0.434364   
C18      C      0.925470000000     0.492700000000     0.002400000000     0.434743   
C19      C      0.992170000000     0.490940000000     0.068660000000     0.437613   
C20      C      0.991590000000     0.495010000000     0.935990000000     0.43433    
C21      C      0.425340000000     0.496830000000     0.987730000000     0.436912   
C22      C      0.558270000000     0.494410000000     0.987500000000     0.436933   
C23      C      0.490560000000     0.429150000000     0.987460000000     0.434372   
C24      C      0.492970000000     0.561700000000     0.988140000000     0.433699   
C25      C      0.650600000000     0.495880000000     0.960060000000    -0.13197    
C26      C      0.871880000000     0.523300000000     0.002250000000     0.074139   
C27      C      0.871920000000     0.461880000000     0.001500000000     0.0737676  
C28      C      0.835720000000     0.523760000000     0.001270000000    -0.0950373  
C29      C      0.759030000000     0.469290000000     0.018260000000    -0.0374054  
C30      C      0.722840000000     0.469440000000     0.016370000000    -0.0330044  
C31      C      0.778710000000     0.492710000000     0.998460000000    -0.00671904 
C32      C      0.835720000000     0.461410000000     0.000650000000    -0.0949494  
C33      C      0.705550000000     0.492870000000     0.994470000000    -0.014534   
C34      C      0.646720000000     0.490300000000     0.021770000000    -0.104722   
C35      C      0.725240000000     0.516280000000     0.974710000000    -0.0329829  
C36      C      0.610700000000     0.490960000000     0.019110000000     0.076819   
C37      C      0.614180000000     0.496530000000     0.957730000000     0.152018   
C38      C      0.761380000000     0.516230000000     0.976710000000    -0.0376083  
C39      C      0.817170000000     0.492600000000     0.000300000000     0.0494794  
C40      C      0.667110000000     0.492900000000     0.992110000000     0.0655365  
C41      C      0.599050000000     0.500590000000     0.921700000000    -0.216421   
C42      C      0.333080000000     0.500940000000     0.960470000000    -0.132052   
C43      C      0.111990000000     0.463380000000     0.000580000000     0.0735205  
C44      C      0.111300000000     0.524780000000     0.002250000000     0.0739643  
C45      C      0.148200000000     0.463350000000     0.999760000000    -0.0950302  
C46      C      0.224700000000     0.471560000000     0.017550000000    -0.0374864  
C47      C      0.260900000000     0.472070000000     0.015780000000    -0.0330258  
C48      C      0.204870000000     0.495330000000     0.998330000000    -0.00664323 
C49      C      0.147460000000     0.525690000000     0.001380000000    -0.0949201  
C50      C      0.278060000000     0.496280000000     0.994640000000    -0.0145254  
C51      C      0.336870000000     0.492880000000     0.021930000000    -0.104761   
C52      C      0.258220000000     0.520090000000     0.975500000000    -0.0330173  
C53      C      0.372900000000     0.493420000000     0.019310000000     0.0768775  
C54      C      0.369500000000     0.501670000000     0.958230000000     0.152117   
C55      C      0.222070000000     0.519640000000     0.977340000000    -0.0376587  
C56      C      0.166390000000     0.494760000000     0.999980000000     0.0492272  
C57      C      0.316510000000     0.496600000000     0.992340000000     0.0654789  
C58      C      0.384720000000     0.507950000000     0.922570000000    -0.216394   
C59      C      0.527270000000     0.838560000000     0.994720000000    -0.132043   
C60      C      0.493430000000     0.615520000000     0.957850000000     0.0727031  
C61      C      0.494260000000     0.614980000000     0.019270000000     0.0736123  
C62      C      0.493930000000     0.651720000000     0.957710000000    -0.0952653  
C63      C      0.474330000000     0.727600000000     0.966570000000    -0.0377133  
C64      C      0.474630000000     0.763810000000     0.967210000000    -0.0331826  
C65      C      0.495260000000     0.708490000000     0.989460000000    -0.00675215 
C66      C      0.494870000000     0.651140000000     0.020060000000    -0.0949088  
C67      C      0.495980000000     0.781750000000     0.990670000000    -0.0146836  
C68      C      0.465390000000     0.838930000000     0.989250000000    -0.105176   
C69      C      0.517010000000     0.762640000000     0.013470000000    -0.0330337  
C70      C      0.465970000000     0.875010000000     0.990170000000     0.0763615  
C71      C      0.527460000000     0.875050000000     0.995810000000     0.15184    
C72      C      0.516620000000     0.726440000000     0.012900000000    -0.0377466  
C73      C      0.494700000000     0.669990000000     0.989050000000     0.0489786  
C74      C      0.496210000000     0.820250000000     0.991450000000     0.0652914  
C75      C      0.562420000000     0.892260000000     0.000730000000    -0.216744   
C76      C      0.453830000000     0.152510000000     0.992150000000    -0.131767   
C77      C      0.488990000000     0.375610000000     0.018090000000     0.073818   
C78      C      0.489690000000     0.375620000000     0.956660000000     0.0734071  
C79      C      0.487990000000     0.339450000000     0.018550000000    -0.0949435  
C80      C      0.507590000000     0.263230000000     0.964460000000    -0.0375702  
C81      C      0.506950000000     0.227020000000     0.964910000000    -0.0331319  
C82      C      0.486840000000     0.282400000000     0.987460000000    -0.006712   
C83      C      0.488810000000     0.339430000000     0.956190000000    -0.095156   
C84      C      0.485430000000     0.209170000000     0.988270000000    -0.0145536  
C85      C      0.515700000000     0.151850000000     0.986840000000    -0.104912   
C86      C      0.464530000000     0.228340000000     0.011120000000    -0.0330321  
C87      C      0.514960000000     0.115790000000     0.987900000000     0.0766881  
C88      C      0.453440000000     0.116020000000     0.993200000000     0.151193   
C89      C      0.465260000000     0.264530000000     0.010750000000    -0.0376514  
C90      C      0.487880000000     0.320890000000     0.987370000000     0.0492016  
C91      C      0.484980000000     0.170670000000     0.989000000000     0.0652985  
C92      C      0.418260000000     0.098980000000     0.997100000000    -0.216105   
C93      C      0.458160000000     0.990610000000     0.834250000000    -0.131876   
C94      C      0.496040000000     0.022340000000     0.611430000000     0.0737901  
C95      C      0.497020000000     0.960930000000     0.612410000000     0.0734729  
C96      C      0.495110000000     0.023360000000     0.647600000000    -0.0947884  
C97      C      0.513470000000     0.016920000000     0.724090000000    -0.0375624  
C98      C      0.512250000000     0.017250000000     0.760290000000    -0.0330372  
C99      C      0.493620000000     0.992970000000     0.705110000000    -0.00676325 
C100     C      0.496000000000     0.961020000000     0.648570000000    -0.0952074  
C101     C      0.491050000000     0.993740000000     0.778320000000    -0.0147235  
C102     C      0.519830000000     0.997670000000     0.836330000000    -0.10515    
C103     C      0.471170000000     0.969840000000     0.759340000000    -0.033224   
C104     C      0.518160000000     0.997620000000     0.872380000000     0.0762429  
C105     C      0.456840000000     0.990590000000     0.870730000000     0.151032   
C106     C      0.472480000000     0.969430000000     0.723160000000    -0.0378277  
C107     C      0.494980000000     0.992460000000     0.666640000000     0.0491132  
C108     C      0.489680000000     0.994080000000     0.816800000000     0.0651609  
C109     C      0.421320000000     0.986220000000     0.886940000000    -0.215775   
C110     C      0.503830000000     0.959160000000     0.333890000000    -0.13195    
C111     C      0.463580000000     0.994890000000     0.112890000000     0.0733457  
C112     C      0.524930000000     0.997630000000     0.110970000000     0.073181   
C113     C      0.464250000000     0.994650000000     0.149070000000    -0.0952296  
C114     C      0.473410000000     0.014230000000     0.224860000000    -0.0375057  
C115     C      0.474270000000     0.013060000000     0.261040000000    -0.0330091  
C116     C      0.497170000000     0.994890000000     0.205130000000    -0.00680189 
C117     C      0.526540000000     0.997300000000     0.147130000000    -0.0951679  
C118     C      0.498800000000     0.992410000000     0.278330000000    -0.014615   
C119     C      0.495540000000     0.020630000000     0.336650000000    -0.104859   
C120     C      0.522650000000     0.973180000000     0.258600000000    -0.0331329  
C121     C      0.496090000000     0.018630000000     0.372690000000     0.0767518  
C122     C      0.504460000000     0.957530000000     0.370350000000     0.15155    
C123     C      0.521880000000     0.974450000000     0.222420000000    -0.0377018  
C124     C      0.495980000000     0.995730000000     0.166650000000     0.0491473  
C125     C      0.499380000000     0.990730000000     0.316800000000     0.0653246  
C126     C      0.510470000000     0.922100000000     0.386190000000    -0.216126   
C127     C      0.029370000000     0.503310000000     0.660450000000    -0.131787   
C128     C      0.992010000000     0.527190000000     0.883270000000     0.0739826  
C129     C      0.991560000000     0.465790000000     0.881620000000     0.0740317  
C130     C      0.992470000000     0.528620000000     0.847110000000    -0.0948199  
C131     C      0.014970000000     0.522520000000     0.771810000000    -0.0375871  
C132     C      0.016260000000     0.523040000000     0.735630000000    -0.0329934  
C133     C      0.993370000000     0.498910000000     0.789230000000    -0.00663739 
C134     C      0.991920000000     0.466290000000     0.845440000000    -0.0947962  
C135     C      0.995920000000     0.500040000000     0.716030000000    -0.0145233  
C136     C      0.967580000000     0.497710000000     0.657710000000    -0.104762   
C137     C      0.974120000000     0.476620000000     0.733430000000    -0.033008   
C138     C      0.969600000000     0.498020000000     0.621670000000     0.0768125  
C139     C      0.031040000000     0.503710000000     0.623990000000     0.151972   
C140     C      0.972910000000     0.476020000000     0.769620000000    -0.0374866  
C141     C      0.992470000000     0.497940000000     0.827720000000     0.0493279  
C142     C      0.997620000000     0.500340000000     0.677560000000     0.0653879  
C143     C      0.066740000000     0.507970000000     0.608150000000    -0.216665   
C144     C      0.995240000000     0.461050000000     0.160180000000    -0.13211    
C145     C      0.027090000000     0.498410000000     0.381870000000     0.0742332  
C146     C      0.965650000000     0.499130000000     0.382980000000     0.074064   
C147     C      0.026900000000     0.497680000000     0.345700000000    -0.094789   
C148     C      0.971340000000     0.517130000000     0.270400000000    -0.0374351  
C149     C      0.970810000000     0.515990000000     0.234190000000    -0.0328972  
C150     C      0.994750000000     0.496520000000     0.289230000000    -0.0065519  
C151     C      0.964540000000     0.498530000000     0.346800000000    -0.0946624  
C152     C      0.993560000000     0.494090000000     0.216030000000    -0.0145719  
C153     C      0.990300000000     0.522900000000     0.158000000000    -0.104892   
C154     C      0.016950000000     0.473480000000     0.234880000000    -0.0328398  
C155     C      0.990190000000     0.521160000000     0.121950000000     0.0769968  
C156     C      0.995120000000     0.459660000000     0.123710000000     0.152196   
C157     C      0.017570000000     0.474710000000     0.271040000000    -0.0375316  
C158     C      0.995390000000     0.497680000000     0.327700000000     0.0493934  
C159     C      0.992940000000     0.492680000000     0.177560000000     0.0657536  
C160     C      0.998370000000     0.424000000000     0.107560000000    -0.216899   
C161     C      0.340420000000     0.958190000000     0.494530000000    -0.131778   
C162     C      0.117550000000     0.997840000000     0.466680000000     0.0732709  
C163     C      0.119400000000     0.999470000000     0.528070000000     0.0731024  
C164     C      0.153710000000     0.996800000000     0.465160000000    -0.0951706  
C165     C      0.230440000000     0.014840000000     0.470560000000    -0.0375238  
C166     C      0.266630000000     0.013210000000     0.469660000000    -0.0331093  
C167     C      0.211620000000     0.995110000000     0.494710000000    -0.00687282 
C168     C      0.155570000000     0.998280000000     0.527470000000    -0.0951957  
C169     C      0.284770000000     0.991650000000     0.492740000000    -0.0146172  
C170     C      0.342990000000     0.019950000000     0.488730000000    -0.104836   
C171     C      0.265940000000     0.971850000000     0.516820000000    -0.0332124  
C172     C      0.379040000000     0.017990000000     0.488630000000     0.0766902  
C173     C      0.376900000000     0.956560000000     0.494290000000     0.151277   
C174     C      0.229780000000     0.973610000000     0.517850000000    -0.0377413  
C175     C      0.173170000000     0.996840000000     0.495780000000     0.0491523  
C176     C      0.323230000000     0.989920000000     0.491870000000     0.0651798  
C177     C      0.392840000000     0.920840000000     0.497750000000    -0.215882   
C178     C      0.840700000000     0.996540000000     0.533280000000    -0.131891   
C179     C      0.617610000000     0.023490000000     0.493150000000     0.0739157  
C180     C      0.619250000000     0.962130000000     0.495160000000     0.0734615  
C181     C      0.653780000000     0.024950000000     0.494110000000    -0.0948101  
C182     C      0.730380000000     0.018510000000     0.476310000000    -0.0375749  
C183     C      0.766580000000     0.019410000000     0.477670000000    -0.0329838  
C184     C      0.711620000000     0.995350000000     0.497260000000    -0.00671244 
C185     C      0.655420000000     0.962660000000     0.496270000000    -0.0951594  
C186     C      0.784820000000     0.997280000000     0.500140000000    -0.0147003  
C187     C      0.842860000000     0.000250000000     0.471330000000    -0.105121   
C188     C      0.766050000000     0.974170000000     0.521130000000    -0.0330623  
C189     C      0.878920000000     0.000550000000     0.473060000000     0.0765906  
C190     C      0.877190000000     0.996780000000     0.534650000000     0.151181   
C191     C      0.729880000000     0.973190000000     0.519680000000    -0.0377684  
C192     C      0.673150000000     0.994320000000     0.495810000000     0.0491736  
C193     C      0.823300000000     0.998160000000     0.501590000000     0.0652691  
C194     C      0.893400000000     0.993910000000     0.570310000000    -0.215833   
C195     C      0.001170000000     0.842350000000     0.535960000000    -0.131866   
C196     C      0.029660000000     0.619520000000     0.501840000000     0.0736524  
C197     C      0.968210000000     0.619600000000     0.501900000000     0.073955   
C198     C      0.030180000000     0.655690000000     0.502080000000    -0.095116   
C199     C      0.022260000000     0.730960000000     0.524030000000    -0.0376955  
C200     C      0.022160000000     0.767150000000     0.524680000000    -0.0330695  
C201     C      0.999060000000     0.712760000000     0.502630000000    -0.00674447 
C202     C      0.967790000000     0.655780000000     0.501990000000    -0.0949805  
C203     C      0.998960000000     0.785980000000     0.503840000000    -0.014725   
C204     C      0.996430000000     0.843510000000     0.474060000000    -0.104984   
C205     C      0.975870000000     0.767790000000     0.482320000000    -0.0330043  
C206     C      0.996570000000     0.879580000000     0.475180000000     0.0765469  
C207     C      0.001200000000     0.878840000000     0.536730000000     0.150988   
C208     C      0.975860000000     0.731590000000     0.481780000000    -0.0375932  
C209     C      0.999010000000     0.674290000000     0.502170000000     0.049248   
C210     C      0.998820000000     0.824450000000     0.504610000000     0.0652537  
C211     C      0.003990000000     0.895570000000     0.572150000000    -0.215395   
C212     C      0.000070000000     0.157160000000     0.466390000000    -0.131899   
C213     C      0.029320000000     0.379890000000     0.501130000000     0.0738414  
C214     C      0.967910000000     0.379960000000     0.503310000000     0.0739564  
C215     C      0.029720000000     0.343710000000     0.500530000000    -0.0949141  
C216     C      0.020980000000     0.268670000000     0.478240000000    -0.0376384  
C217     C      0.020860000000     0.232480000000     0.477320000000    -0.0329126  
C218     C      0.998460000000     0.286710000000     0.500490000000    -0.00664136 
C219     C      0.967380000000     0.343770000000     0.502870000000    -0.094854   
C220     C      0.998310000000     0.213490000000     0.498700000000    -0.014677   
C221     C      0.996790000000     0.155860000000     0.528380000000    -0.105194   
C222     C      0.975840000000     0.231510000000     0.521010000000    -0.0329662  
C223     C      0.997100000000     0.119800000000     0.527190000000     0.0767202  
C224     C      0.000410000000     0.120670000000     0.465560000000     0.151855   
C225     C      0.975860000000     0.267710000000     0.521840000000    -0.0376348  
C226     C      0.998520000000     0.325190000000     0.501360000000     0.0492537  
C227     C      0.998310000000     0.175000000000     0.497820000000     0.0654197  
C228     C      0.003100000000     0.103980000000     0.430110000000    -0.216741   
H1       H      0.885240000000     0.437150000000     0.001430000000     0.0237174  
H2       H      0.596390000000     0.488880000000     0.043200000000     0.0246379  
H3       H      0.775790000000     0.534360000000     0.960860000000     0.0369355  
H4       H      0.708390000000     0.450920000000     0.031730000000     0.0356994  
H5       H      0.658500000000     0.488270000000     0.047180000000     0.054336   
H6       H      0.771610000000     0.451050000000     0.035500000000     0.0368813  
H7       H      0.666200000000     0.497480000000     0.936740000000     0.0599553  
H8       H      0.822400000000     0.436730000000     0.999590000000     0.0516381  
H9       H      0.822390000000     0.548460000000     0.001540000000     0.0519332  
H10      H      0.712680000000     0.534900000000     0.957870000000     0.0350907  
H11      H      0.885130000000     0.548070000000     0.002930000000     0.0246551  
H12      H      0.582750000000     0.524260000000     0.920380000000     0.0851363  
H13      H      0.619410000000     0.503590000000     0.901550000000     0.0681233  
H14      H      0.583840000000     0.477210000000     0.914650000000     0.0851199  
H15      H      0.097760000000     0.549370000000     0.003300000000     0.0246701  
H16      H      0.387200000000     0.490180000000     0.043280000000     0.0244894  
H17      H      0.207570000000     0.538080000000     0.961940000000     0.0367267  
H18      H      0.275440000000     0.453210000000     0.030630000000     0.0354893  
H19      H      0.325070000000     0.489890000000     0.047220000000     0.0542792  
H20      H      0.212250000000     0.452720000000     0.034220000000     0.0366272  
H21      H      0.317550000000     0.503580000000     0.937210000000     0.0598732  
H22      H      0.160480000000     0.550540000000     0.002090000000     0.0518479  
H23      H      0.161790000000     0.438840000000     0.998320000000     0.0514152  
H24      H      0.270660000000     0.539310000000     0.959270000000     0.0348656  
H25      H      0.098970000000     0.438490000000     0.000110000000     0.0233886  
H26      H      0.398750000000     0.484510000000     0.913530000000     0.0848303  
H27      H      0.364470000000     0.513670000000     0.902900000000     0.0679638  
H28      H      0.402190000000     0.530810000000     0.923090000000     0.0850489  
H29      H      0.494290000000     0.601490000000     0.043910000000     0.0246943  
H30      H      0.441090000000     0.887910000000     0.988120000000     0.0228     
H31      H      0.533310000000     0.712500000000     0.030640000000     0.036717   
H32      H      0.458350000000     0.777780000000     0.949110000000     0.0349231  
H33      H      0.440680000000     0.825750000000     0.987180000000     0.0536029  
H34      H      0.457330000000     0.714570000000     0.948430000000     0.0363042  
H35      H      0.551460000000     0.824360000000     0.996220000000     0.0598252  
H36      H      0.495010000000     0.664210000000     0.044890000000     0.0518442  
H37      H      0.494180000000     0.665260000000     0.933120000000     0.0507548  
H38      H      0.533480000000     0.775670000000     0.032080000000     0.0349181  
H39      H      0.492960000000     0.602450000000     0.932990000000     0.0219646  
H40      H      0.561900000000     0.909390000000     0.023840000000     0.0854713  
H41      H      0.583470000000     0.873140000000     0.005280000000     0.0683088  
H42      H      0.569550000000     0.907070000000     0.977120000000     0.0850597  
H43      H      0.490230000000     0.388920000000     0.931920000000     0.0229156  
H44      H      0.539820000000     0.102810000000     0.986110000000     0.0243098  
H45      H      0.448700000000     0.278540000000     0.028570000000     0.0366781  
H46      H      0.523120000000     0.212990000000     0.946760000000     0.035397   
H47      H      0.540480000000     0.164910000000     0.984810000000     0.0541418  
H48      H      0.524730000000     0.276210000000     0.946420000000     0.0367355  
H49      H      0.429700000000     0.166850000000     0.993470000000     0.0595739  
H50      H      0.488380000000     0.326120000000     0.931490000000     0.0512737  
H51      H      0.487770000000     0.326150000000     0.043260000000     0.0518553  
H52      H      0.447920000000     0.215370000000     0.029660000000     0.0349694  
H53      H      0.489130000000     0.388860000000     0.042850000000     0.0245481  
H54      H      0.417590000000     0.082980000000     0.020990000000     0.0849413  
H55      H      0.396980000000     0.118230000000     0.999570000000     0.0676009  
H56      H      0.412350000000     0.083060000000     0.973880000000     0.0833968  
H57      H      0.497840000000     0.935980000000     0.599540000000     0.0231115  
H58      H      0.542610000000     0.000460000000     0.885950000000     0.0237386  
H59      H      0.456610000000     0.950880000000     0.709320000000     0.0362189  
H60      H      0.527650000000     0.036180000000     0.774160000000     0.0353868  
H61      H      0.544870000000     0.000040000000     0.823840000000     0.0538827  
H62      H      0.530270000000     0.035180000000     0.710970000000     0.0369369  
H63      H      0.434460000000     0.988230000000     0.819340000000     0.0594835  
H64      H      0.496410000000     0.936520000000     0.662260000000     0.0511795  
H65      H      0.493960000000     0.048240000000     0.660520000000     0.0517965  
H66      H      0.454860000000     0.951150000000     0.772470000000     0.0345972  
H67      H      0.495910000000     0.046870000000     0.597740000000     0.0246255  
H68      H      0.414410000000     0.009670000000     0.902110000000     0.0833284  
H69      H      0.400620000000     0.982760000000     0.867220000000     0.0673222  
H70      H      0.420800000000     0.962710000000     0.903510000000     0.084338   
H71      H      0.549230000000     0.998870000000     0.096910000000     0.02324    
H72      H      0.492800000000     0.042850000000     0.386540000000     0.0244008  
H73      H      0.540330000000     0.959000000000     0.207990000000     0.0364455  
H74      H      0.455370000000     0.027960000000     0.275500000000     0.0353928  
H75      H      0.492450000000     0.045710000000     0.324430000000     0.0542036  
H76      H      0.454280000000     0.030500000000     0.212320000000     0.0366246  
H77      H      0.506530000000     0.935660000000     0.318740000000     0.0597496  
H78      H      0.551620000000     0.998610000000     0.159680000000     0.0514021  
H79      H      0.440010000000     0.993010000000     0.163140000000     0.0513287  
H80      H      0.542100000000     0.957310000000     0.271150000000     0.0349184  
H81      H      0.438430000000     0.993790000000     0.100390000000     0.0231902  
H82      H      0.487100000000     0.913650000000     0.400690000000     0.0835017  
H83      H      0.515650000000     0.901960000000     0.366270000000     0.0678038  
H84      H      0.533580000000     0.922660000000     0.403330000000     0.085075   
H85      H      0.991340000000     0.440690000000     0.894220000000     0.024521   
H86      H      0.945250000000     0.495760000000     0.607830000000     0.0245919  
H87      H      0.955730000000     0.457760000000     0.782250000000     0.0369963  
H88      H      0.033040000000     0.541660000000     0.723000000000     0.0348561  
H89      H      0.942370000000     0.495770000000     0.669940000000     0.0542158  
H90      H      0.031300000000     0.540280000000     0.786160000000     0.0366762  
H91      H      0.052980000000     0.505030000000     0.675590000000     0.0598642  
H92      H      0.992330000000     0.441940000000     0.831480000000     0.0517978  
H93      H      0.992470000000     0.553670000000     0.834450000000     0.0516886  
H94      H      0.958330000000     0.458390000000     0.719080000000     0.0356425  
H95      H      0.991980000000     0.551570000000     0.897230000000     0.0245304  
H96      H      0.067360000000     0.531190000000     0.591170000000     0.085342   
H97      H      0.087160000000     0.511920000000     0.628070000000     0.0682475  
H98      H      0.073940000000     0.484300000000     0.593480000000     0.085478   
H99      H      0.941140000000     0.499580000000     0.396710000000     0.0247662  
H100     H      0.988110000000     0.545650000000     0.108330000000     0.0247045  
H101     H      0.035680000000     0.458250000000     0.284790000000     0.0368359  
H102     H      0.952300000000     0.531980000000     0.220430000000     0.0357672  
H103     H      0.988820000000     0.548010000000     0.170460000000     0.0544727  
H104     H      0.953650000000     0.534450000000     0.283630000000     0.0371667  
H105     H      0.996860000000     0.437320000000     0.175120000000     0.0599979  
H106     H      0.939590000000     0.498180000000     0.333920000000     0.0519588  
H107     H      0.051380000000     0.497500000000     0.331950000000     0.0518944  
H108     H      0.035060000000     0.456610000000     0.221640000000     0.0350778  
H109     H      0.052090000000     0.498420000000     0.394690000000     0.0245066  
H110     H      0.021760000000     0.422770000000     0.090850000000     0.0855807  
H111     H      0.001370000000     0.403270000000     0.127320000000     0.0684202  
H112     H      0.974630000000     0.417730000000     0.092560000000     0.0855614  
H113     H      0.106870000000     0.000560000000     0.553190000000     0.0232539  
H114     H      0.392800000000     0.042360000000     0.486240000000     0.0244856  
H115     H      0.216020000000     0.957830000000     0.536540000000     0.0363489  
H116     H      0.280410000000     0.028580000000     0.450630000000     0.0353732  
H117     H      0.330690000000     0.045120000000     0.486920000000     0.054189   
H118     H      0.217210000000     0.031870000000     0.452590000000     0.0366185  
H119     H      0.325290000000     0.934590000000     0.496520000000     0.0595731  
H120     H      0.169640000000     0.998820000000     0.551760000000     0.051267   
H121     H      0.166290000000     0.995370000000     0.440100000000     0.0513634  
H122     H      0.279180000000     0.955260000000     0.535180000000     0.0348475  
H123     H      0.103520000000     0.997510000000     0.442340000000     0.0233054  
H124     H      0.409310000000     0.919560000000     0.521320000000     0.0846121  
H125     H      0.372950000000     0.900200000000     0.500530000000     0.0675543  
H126     H      0.408080000000     0.914470000000     0.474190000000     0.0837118  
H127     H      0.606630000000     0.937030000000     0.495520000000     0.0231597  
H128     H      0.892540000000     0.002250000000     0.448540000000     0.0234345  
H129     H      0.716180000000     0.955290000000     0.536400000000     0.0366884  
H130     H      0.780280000000     0.037700000000     0.461370000000     0.035373   
H131     H      0.830410000000     0.001170000000     0.446190000000     0.0539226  
H132     H      0.717100000000     0.035700000000     0.458530000000     0.0369019  
H133     H      0.825760000000     0.995280000000     0.557040000000     0.0596727  
H134     H      0.669390000000     0.938330000000     0.497100000000     0.0513177  
H135     H      0.666420000000     0.050010000000     0.494080000000     0.0518649  
H136     H      0.779350000000     0.956530000000     0.538440000000     0.0347866  
H137     H      0.603670000000     0.047860000000     0.492050000000     0.0246585  
H138     H      0.907980000000     0.017920000000     0.576520000000     0.0844443  
H139     H      0.873690000000     0.990560000000     0.591040000000     0.0673842  
H140     H      0.910560000000     0.970850000000     0.571590000000     0.0828658  
H141     H      0.943430000000     0.606360000000     0.501940000000     0.0246474  
H142     H      0.994730000000     0.892770000000     0.450440000000     0.0243758  
H143     H      0.957900000000     0.718330000000     0.464780000000     0.0371131  
H144     H      0.040500000000     0.780420000000     0.541280000000     0.0347801  
H145     H      0.994920000000     0.830640000000     0.449160000000     0.054248   
H146     H      0.040240000000     0.717210000000     0.540630000000     0.0363272  
H147     H      0.002580000000     0.827790000000     0.559940000000     0.0595216  
H148     H      0.943110000000     0.669140000000     0.502440000000     0.0518613  
H149     H      0.054900000000     0.668990000000     0.501800000000     0.0514616  
H150     H      0.957490000000     0.781560000000     0.466170000000     0.035511   
H151     H      0.054400000000     0.606200000000     0.501710000000     0.0233345  
H152     H      0.980410000000     0.911130000000     0.577650000000     0.082358   
H153     H      0.006160000000     0.876160000000     0.593300000000     0.067212   
H154     H      0.027660000000     0.911870000000     0.573580000000     0.0845143  
H155     H      0.943180000000     0.393260000000     0.504280000000     0.0246326  
H156     H      0.995820000000     0.106550000000     0.551940000000     0.0234223  
H157     H      0.958420000000     0.280820000000     0.539490000000     0.0369246  
H158     H      0.038730000000     0.219360000000     0.460100000000     0.0349706  
H159     H      0.995800000000     0.168670000000     0.553340000000     0.0539262  
H160     H      0.038460000000     0.282550000000     0.461220000000     0.0367808  
H161     H      0.000900000000     0.171760000000     0.442400000000     0.0598703  
H162     H      0.942650000000     0.330490000000     0.503160000000     0.0518828  
H163     H      0.054410000000     0.330360000000     0.499810000000     0.0515852  
H164     H      0.957950000000     0.217620000000     0.537600000000     0.0353474  
H165     H      0.054090000000     0.393140000000     0.500490000000     0.02381    
H166     H      0.979300000000     0.088840000000     0.424480000000     0.0852177  
H167     H      0.005750000000     0.123420000000     0.409040000000     0.0683112  
H168     H      0.026500000000     0.087280000000     0.428760000000     0.0854189  
N1       N      0.594120000000     0.493980000000     0.987610000000    -0.211949   
N2       N      0.889900000000     0.492600000000     0.002130000000    -0.199325   
N3       N      0.389510000000     0.497410000000     0.987940000000    -0.212062   
N4       N      0.093650000000     0.493870000000     0.001680000000    -0.199325   
N5       N      0.496490000000     0.893350000000     0.993060000000    -0.212264   
N6       N      0.493560000000     0.597260000000     0.988400000000    -0.199502   
N7       N      0.484380000000     0.097570000000     0.990930000000    -0.211978   
N8       N      0.489770000000     0.393600000000     0.987380000000    -0.199417   
N9       N      0.487200000000     0.994210000000     0.889890000000    -0.212231   
N10      N      0.496940000000     0.991350000000     0.593930000000    -0.199332   
N11      N      0.500180000000     0.987570000000     0.389840000000    -0.212188   
N12      N      0.493690000000     0.996280000000     0.093950000000    -0.199538   
N13      N      0.000810000000     0.500740000000     0.604500000000    -0.211915   
N14      N      0.991670000000     0.496010000000     0.900430000000    -0.198984   
N15      N      0.992500000000     0.490080000000     0.104490000000    -0.212048   
N16      N      0.996700000000     0.499000000000     0.400410000000    -0.199093   
N17      N      0.396310000000     0.986840000000     0.491420000000    -0.212046   
N18      N      0.100490000000     0.999060000000     0.497900000000    -0.199444   
N19      N      0.896380000000     0.998950000000     0.504180000000    -0.212282   
N20      N      0.600450000000     0.992320000000     0.493730000000    -0.19932    
N21      N      0.998880000000     0.897550000000     0.505970000000    -0.212133   
N22      N      0.998910000000     0.601570000000     0.501850000000    -0.199453   
N23      N      0.998750000000     0.101900000000     0.496330000000    -0.212199   
N24      N      0.998640000000     0.397910000000     0.502380000000    -0.1993     
Ni1      Ni     0.997680000000     0.998220000000     0.470450000000     0.998003   
Ni2      Ni     0.999640000000     0.001230000000     0.531730000000     0.995552   
Ni3      Ni     0.029550000000     0.499710000000     0.501570000000     0.99907    
Ni4      Ni     0.968000000000     0.499790000000     0.502880000000     1.00153    
Ni5      Ni     0.499470000000     0.958760000000     0.492740000000     0.995622   
Ni6      Ni     0.497750000000     0.020190000000     0.491470000000     1.0015     
Ni7      Ni     0.521030000000     0.997330000000     0.991120000000     0.998025   
Ni8      Ni     0.459770000000     0.993570000000     0.993170000000     0.994792   
Ni9      Ni     0.991580000000     0.523810000000     0.003170000000     1.00321    
Ni10     Ni     0.991960000000     0.462300000000     0.001320000000     0.99712    
Ni11     Ni     0.491740000000     0.495590000000     0.957030000000     0.994434   
Ni12     Ni     0.491840000000     0.495250000000     0.018490000000     1.00224    
O1       O      0.997750000000     0.047860000000     0.470040000000    -0.457217   
O2       O      0.997750000000     0.948750000000     0.474960000000    -0.45151    
O3       O      0.948130000000     0.998350000000     0.474080000000    -0.452513   
O4       O      0.047360000000     0.998250000000     0.470770000000    -0.451996   
O5       O      0.049180000000     0.001120000000     0.528240000000    -0.452122   
O6       O      0.949980000000     0.001000000000     0.531290000000    -0.458013   
O7       O      0.999710000000     0.951610000000     0.532160000000    -0.458751   
O8       O      0.999430000000     0.050680000000     0.527260000000    -0.452463   
O9       O      0.026520000000     0.499430000000     0.452030000000    -0.451051   
O10      O      0.028520000000     0.500020000000     0.551190000000    -0.457531   
O11      O      0.027500000000     0.450090000000     0.501850000000    -0.451638   
O12      O      0.027630000000     0.549320000000     0.501390000000    -0.45244    
O13      O      0.970040000000     0.549400000000     0.502520000000    -0.45094    
O14      O      0.969920000000     0.450170000000     0.503140000000    -0.450887   
O15      O      0.971180000000     0.500110000000     0.552470000000    -0.451209   
O16      O      0.968920000000     0.499490000000     0.453210000000    -0.450247   
O17      O      0.549020000000     0.962100000000     0.493420000000    -0.452246   
O18      O      0.449820000000     0.959440000000     0.492060000000    -0.45798    
O19      O      0.500170000000     0.959830000000     0.443130000000    -0.458209   
O20      O      0.498660000000     0.961670000000     0.542270000000    -0.452542   
O21      O      0.497150000000     0.019210000000     0.541160000000    -0.450121   
O22      O      0.498460000000     0.017100000000     0.441890000000    -0.451502   
O23      O      0.448190000000     0.016710000000     0.490910000000    -0.451666   
O24      O      0.547430000000     0.019640000000     0.492130000000    -0.450492   
O25      O      0.515940000000     0.046710000000     0.990670000000    -0.451645   
O26      O      0.522070000000     0.947690000000     0.991680000000    -0.456902   
O27      O      0.517340000000     0.996630000000     0.941570000000    -0.452142   
O28      O      0.520750000000     0.997750000000     0.040790000000    -0.452032   
O29      O      0.463300000000     0.994270000000     0.042680000000    -0.452185   
O30      O      0.460170000000     0.993100000000     0.943550000000    -0.458316   
O31      O      0.464860000000     0.944160000000     0.993550000000    -0.452453   
O32      O      0.458750000000     0.043210000000     0.992610000000    -0.457537   
O33      O      0.041190000000     0.522160000000     0.003020000000    -0.451627   
O34      O      0.942000000000     0.521540000000     0.003160000000    -0.451838   
O35      O      0.991690000000     0.520180000000     0.052740000000    -0.451568   
O36      O      0.991530000000     0.523310000000     0.953480000000    -0.450557   
O37      O      0.991700000000     0.465750000000     0.951800000000    -0.450854   
O38      O      0.992240000000     0.462900000000     0.050930000000    -0.457862   
O39      O      0.942270000000     0.463990000000     0.001620000000    -0.451011   
O40      O      0.041630000000     0.464620000000     0.001150000000    -0.451358   
O41      O      0.442190000000     0.496450000000     0.959140000000    -0.457652   
O42      O      0.541310000000     0.494780000000     0.958980000000    -0.457634   
O43      O      0.490910000000     0.445930000000     0.958740000000    -0.451671   
O44      O      0.492570000000     0.545220000000     0.959240000000    -0.453169   
O45      O      0.492790000000     0.544850000000     0.016810000000    -0.451316   
O46      O      0.490870000000     0.445700000000     0.016310000000    -0.451501   
O47      O      0.541520000000     0.494320000000     0.016300000000    -0.450779   
O48      O      0.442160000000     0.496200000000     0.016480000000    -0.450872   


