data_structure

_audit_creation_method RASPA-1.0
_audit_creation_date 2023-6-5
_audit_author_name 'Poobodin Mano'

_cell_length_a    62.699
_cell_length_b    62.8983
_cell_length_c    37.9547
_cell_angle_alpha 89.9623
_cell_angle_beta  90.0374
_cell_angle_gamma 119.903
_cell_volume      129754

_symmetry_cell_setting          triclinic
_symmetry_space_group_name_Hall 'P 1'
_symmetry_space_group_name_H-M  'P 1'
_symmetry_Int_Tables_number     1

_symmetry_equiv_pos_as_xyz 'x,y,z'

loop_
_atom_site_label
_atom_site_type_symbol
_atom_site_fract_x
_atom_site_fract_y
_atom_site_fract_z
_atom_site_charge
C1       C      0.813580000000     0.648640000000     0.678910000000     0.439745   
C2       C      0.835140000000     0.654190000000     0.548080000000     0.439406   
C3       C      0.869130000000     0.672770000000     0.630530000000     0.432238   
C4       C      0.778090000000     0.629480000000     0.596470000000     0.434537   
C5       C      0.160510000000     0.824430000000     0.736310000000     0.434762   
C6       C      0.142020000000     0.809880000000     0.868130000000     0.43819    
C7       C      0.104790000000     0.791850000000     0.787830000000     0.43986    
C8       C      0.196370000000     0.841680000000     0.818630000000     0.438283   
C9       C      0.501510000000     0.990820000000     0.893560000000     0.435539   
C10      C      0.474170000000     0.979280000000     0.022420000000     0.439943   
C11      C      0.443270000000     0.963380000000     0.937730000000     0.433804   
C12      C      0.532980000000     0.006830000000     0.978430000000     0.434406   
C13      C      0.135070000000     0.313570000000     0.388580000000     0.435747   
C14      C      0.152760000000     0.316620000000     0.256660000000     0.434567   
C15      C      0.190110000000     0.335920000000     0.335010000000     0.439335   
C16      C      0.097750000000     0.294370000000     0.309230000000     0.433969   
C17      C      0.836240000000     0.164540000000     0.056730000000     0.43651    
C18      C      0.814440000000     0.148170000000     0.186460000000     0.443869   
C19      C      0.779100000000     0.129660000000     0.101000000000     0.439927   
C20      C      0.866570000000     0.180180000000     0.146090000000     0.446333   
C21      C      0.470380000000     0.473570000000     0.533550000000     0.437105   
C22      C      0.496460000000     0.495720000000     0.404720000000     0.43779    
C23      C      0.528220000000     0.508380000000     0.489490000000     0.438851   
C24      C      0.438190000000     0.460520000000     0.450080000000     0.433274   
C25      C      0.142670000000     0.313610000000     0.758560000000     0.441056   
C26      C      0.166110000000     0.313780000000     0.887480000000     0.439832   
C27      C      0.178770000000     0.293850000000     0.804300000000     0.432359   
C28      C      0.129520000000     0.334590000000     0.842980000000     0.439933   
C29      C      0.320920000000     0.161220000000     0.581370000000     0.432097   
C30      C      0.324170000000     0.139130000000     0.710560000000     0.435219   
C31      C      0.343030000000     0.125860000000     0.626310000000     0.433231   
C32      C      0.302140000000     0.174440000000     0.666990000000     0.439751   
C33      C      0.971320000000     0.486760000000     0.872930000000     0.436046   
C34      C      0.976900000000     0.471410000000     0.003820000000     0.436926   
C35      C      0.996470000000     0.455700000000     0.923210000000     0.432012   
C36      C      0.951370000000     0.502410000000     0.953130000000     0.439654   
C37      C      0.663260000000     0.840660000000     0.220970000000     0.440434   
C38      C      0.664210000000     0.824620000000     0.352730000000     0.439945   
C39      C      0.684740000000     0.806640000000     0.273640000000     0.439765   
C40      C      0.643330000000     0.857280000000     0.300580000000     0.432671   
C41      C      0.824030000000     0.649800000000     0.177560000000     0.434752   
C42      C      0.805850000000     0.654070000000     0.047170000000     0.434717   
C43      C      0.793550000000     0.675970000000     0.129510000000     0.434671   
C44      C      0.836360000000     0.627840000000     0.095300000000     0.434656   
C45      C      0.501070000000     0.991040000000     0.522880000000     0.438812   
C46      C      0.482950000000     0.993180000000     0.391910000000     0.434165   
C47      C      0.465220000000     0.011590000000     0.472350000000     0.439457   
C48      C      0.518350000000     0.973280000000     0.442660000000     0.438969   
C49      C      0.324060000000     0.175350000000     0.210480000000     0.435993   
C50      C      0.317790000000     0.148680000000     0.081510000000     0.432448   
C51      C      0.299990000000     0.117450000000     0.167920000000     0.439671   
C52      C      0.341560000000     0.206420000000     0.125460000000     0.433263   
C53      C      0.480480000000     0.479320000000     0.904390000000     0.432537   
C54      C      0.500110000000     0.505680000000     0.033460000000     0.43259    
C55      C      0.514770000000     0.536910000000     0.946570000000     0.439002   
C56      C      0.466290000000     0.448420000000     0.991090000000     0.439095   
C57      C      0.166490000000     0.837770000000     0.366000000000     0.437942   
C58      C      0.143180000000     0.813320000000     0.237120000000     0.434512   
C59      C      0.130900000000     0.780610000000     0.321480000000     0.439549   
C60      C      0.178870000000     0.870450000000     0.282980000000     0.433667   
C61      C      0.984390000000     0.476100000000     0.373040000000     0.440701   
C62      C      0.985390000000     0.496370000000     0.503440000000     0.439551   
C63      C      0.004990000000     0.530870000000     0.422200000000     0.4344     
C64      C      0.964170000000     0.440020000000     0.454870000000     0.435645   
C65      C      0.828410000000     0.146620000000     0.556690000000     0.435629   
C66      C      0.840530000000     0.169990000000     0.687070000000     0.439291   
C67      C      0.855560000000     0.203100000000     0.605320000000     0.438281   
C68      C      0.812850000000     0.112570000000     0.641120000000     0.43896    
C69      C      0.666890000000     0.835720000000     0.850560000000     0.435447   
C70      C      0.656680000000     0.809430000000     0.721400000000     0.435525   
C71      C      0.638810000000     0.777880000000     0.806360000000     0.434251   
C72      C      0.685040000000     0.867410000000     0.765790000000     0.433733   
C73      C      0.800840000000     0.052640000000     0.676670000000    -0.141351   
C74      C      0.684610000000     0.902690000000     0.743710000000     0.0738799  
C75      C      0.722540000000     0.903430000000     0.750640000000     0.0740139  
C76      C      0.696800000000     0.926500000000     0.730080000000    -0.0938788  
C77      C      0.727730000000     0.981370000000     0.719770000000    -0.0375246  
C78      C      0.740310000000     0.005270000000     0.706470000000    -0.032237   
C79      C      0.735820000000     0.964630000000     0.712230000000    -0.00579757 
C80      C      0.735320000000     0.927340000000     0.737450000000    -0.0939646  
C81      C      0.761430000000     0.013110000000     0.685570000000    -0.0159418  
C82      C      0.763000000000     0.050280000000     0.658940000000    -0.107677   
C83      C      0.769550000000     0.996460000000     0.677940000000    -0.0321646  
C84      C      0.776150000000     0.074860000000     0.648990000000     0.0795224  
C85      C      0.813690000000     0.077830000000     0.668390000000     0.184914   
C86      C      0.756820000000     0.972460000000     0.690940000000    -0.0377067  
C87      C      0.722490000000     0.939190000000     0.726710000000     0.048914   
C88      C      0.775310000000     0.038850000000     0.672820000000     0.0702496  
C89      C      0.865790000000     0.263630000000     0.577180000000    -0.142617   
C90      C      0.967490000000     0.405230000000     0.471170000000     0.0745373  
C91      C      0.928580000000     0.402880000000     0.472310000000     0.0744231  
C92      C      0.957150000000     0.381410000000     0.484400000000    -0.0942929  
C93      C      0.934720000000     0.338050000000     0.533610000000    -0.0373256  
C94      C      0.924320000000     0.315110000000     0.549880000000    -0.0320414  
C95      C      0.921080000000     0.343430000000     0.509300000000    -0.00584014 
C96      C      0.917700000000     0.379140000000     0.486060000000    -0.0941593  
C97      C      0.899940000000     0.297110000000     0.542630000000    -0.0161619  
C98      C      0.901110000000     0.259920000000     0.563100000000    -0.108177   
C99      C      0.886250000000     0.302330000000     0.518380000000    -0.0320291  
C100     C      0.890040000000     0.237160000000     0.579790000000     0.079213   
C101     C      0.855550000000     0.241300000000     0.595660000000     0.185805   
C102     C      0.896750000000     0.325170000000     0.501700000000    -0.0374793  
C103     C      0.932040000000     0.368170000000     0.492730000000     0.0493945  
C104     C      0.888670000000     0.273070000000     0.560790000000     0.0709636  
C105     C      0.116330000000     0.719180000000     0.352330000000    -0.142425   
C106     C      0.002200000000     0.565480000000     0.402800000000     0.0749536  
C107     C      0.041290000000     0.568960000000     0.411200000000     0.07321    
C108     C      0.013320000000     0.589860000000     0.391480000000    -0.0951821  
C109     C      0.042530000000     0.645690000000     0.387510000000    -0.0373349  
C110     C      0.054940000000     0.670340000000     0.377280000000    -0.0320051  
C111     C      0.051360000000     0.629950000000     0.377460000000    -0.00619025 
C112     C      0.052980000000     0.593340000000     0.400120000000    -0.0951149  
C113     C      0.076480000000     0.679770000000     0.356890000000    -0.0157889  
C114     C      0.079080000000     0.719170000000     0.337580000000    -0.107455   
C115     C      0.084940000000     0.663910000000     0.346120000000    -0.0321969  
C116     C      0.092980000000     0.744160000000     0.330010000000     0.0804975  
C117     C      0.129890000000     0.744580000000     0.346300000000     0.186469   
C118     C      0.072500000000     0.639290000000     0.356200000000    -0.0375639  
C119     C      0.039020000000     0.604070000000     0.389790000000     0.0494633  
C120     C      0.090780000000     0.706300000000     0.348240000000     0.0708495  
C121     C      0.562950000000     0.594410000000     0.905530000000    -0.142016   
C122     C      0.602150000000     0.743490000000     0.827920000000     0.074387   
C123     C      0.638880000000     0.741600000000     0.824330000000     0.0743204  
C124     C      0.589780000000     0.720090000000     0.842850000000    -0.0941623  
C125     C      0.564260000000     0.665730000000     0.857890000000    -0.0373861  
C126     C      0.552230000000     0.642370000000     0.873050000000    -0.0320694  
C127     C      0.589310000000     0.682060000000     0.864860000000    -0.00579369 
C128     C      0.626980000000     0.718010000000     0.838730000000    -0.093882   
C129     C      0.565010000000     0.634620000000     0.895140000000    -0.0159708  
C130     C      0.529350000000     0.599430000000     0.925070000000    -0.107846   
C131     C      0.589990000000     0.650800000000     0.902190000000    -0.0322051  
C132     C      0.517300000000     0.575190000000     0.936750000000     0.0796497  
C133     C      0.549850000000     0.569530000000     0.915350000000     0.18561    
C134     C      0.601950000000     0.674320000000     0.887470000000    -0.0373     
C135     C      0.602160000000     0.706990000000     0.848600000000     0.049207   
C136     C      0.552500000000     0.609340000000     0.909550000000     0.0709046  
C137     C      0.254130000000     0.058060000000     0.206280000000    -0.141952   
C138     C      0.215650000000     0.904850000000     0.261450000000     0.0738062  
C139     C      0.180350000000     0.908450000000     0.272370000000     0.073713   
C140     C      0.228680000000     0.929230000000     0.250080000000    -0.0945223  
C141     C      0.245080000000     0.976530000000     0.207730000000    -0.0376089  
C142     C      0.256810000000     0.000910000000     0.196190000000    -0.0318153  
C143     C      0.230770000000     0.969560000000     0.238570000000    -0.00602286 
C144     C      0.192880000000     0.932890000000     0.261510000000    -0.0952209  
C145     C      0.254530000000     0.018820000000     0.215360000000    -0.0157618  
C146     C      0.290060000000     0.056420000000     0.188810000000    -0.107133   
C147     C      0.240700000000     0.011850000000     0.246680000000    -0.0317602  
C148     C      0.300970000000     0.080910000000     0.178290000000     0.0803369  
C149     C      0.265880000000     0.083040000000     0.197280000000     0.186347   
C150     C      0.228890000000     0.987520000000     0.258050000000    -0.0378809  
C151     C      0.217320000000     0.943560000000     0.250150000000     0.0495005  
C152     C      0.266300000000     0.044640000000     0.202800000000     0.0706494  
C153     C      0.451820000000     0.388680000000     0.029220000000    -0.142544   
C154     C      0.338730000000     0.240170000000     0.102230000000     0.0739113  
C155     C      0.377780000000     0.243360000000     0.109380000000     0.0734912  
C156     C      0.349690000000     0.263630000000     0.087430000000    -0.0942208  
C157     C      0.379060000000     0.318660000000     0.074210000000    -0.0375649  
C158     C      0.391190000000     0.342340000000     0.060020000000    -0.0318212  
C159     C      0.387380000000     0.302070000000     0.066970000000    -0.00589909 
C160     C      0.389320000000     0.266880000000     0.094890000000    -0.0945536  
C161     C      0.411960000000     0.349970000000     0.038440000000    -0.0159459  
C162     C      0.414490000000     0.387980000000     0.012830000000    -0.107474   
C163     C      0.419900000000     0.333220000000     0.030490000000    -0.0321167  
C164     C      0.428400000000     0.412430000000     0.002250000000     0.0801663  
C165     C      0.465400000000     0.413650000000     0.020300000000     0.186565   
C166     C      0.407710000000     0.309540000000     0.044470000000    -0.037642   
C167     C      0.375280000000     0.277240000000     0.083290000000     0.0492073  
C168     C      0.426230000000     0.375730000000     0.025970000000     0.0709605  
C169     C      0.675960000000     0.836530000000     0.447920000000    -0.143331   
C170     C      0.635130000000     0.802510000000     0.667250000000     0.0751195  
C171     C      0.672940000000     0.802510000000     0.668600000000     0.074317   
C172     C      0.634410000000     0.800760000000     0.630630000000    -0.095576   
C173     C      0.650880000000     0.820210000000     0.557000000000    -0.0376419  
C174     C      0.653120000000     0.823310000000     0.520600000000    -0.0318128  
C175     C      0.655040000000     0.802630000000     0.573550000000    -0.00622083 
C176     C      0.672730000000     0.800600000000     0.631870000000    -0.0946668  
C177     C      0.659420000000     0.808800000000     0.499850000000    -0.0164518  
C178     C      0.649240000000     0.793440000000     0.437900000000    -0.108202   
C179     C      0.663160000000     0.790860000000     0.516160000000    -0.032052   
C180     C      0.650060000000     0.798140000000     0.401830000000     0.0805971  
C181     C      0.675920000000     0.841050000000     0.411710000000     0.186283   
C182     C      0.661220000000     0.787960000000     0.552840000000    -0.0379162  
C183     C      0.653720000000     0.800560000000     0.612460000000     0.0499647  
C184     C      0.662130000000     0.812790000000     0.461300000000     0.0715107  
C185     C      0.643040000000     0.837070000000     0.129020000000    -0.14189    
C186     C      0.688770000000     0.844850000000     0.904960000000     0.0745759  
C187     C      0.649180000000     0.841010000000     0.902840000000     0.0750946  
C188     C      0.689600000000     0.847950000000     0.941500000000    -0.0951162  
C189     C      0.687350000000     0.866610000000     0.017000000000    -0.0381285  
C190     C      0.686320000000     0.866900000000     0.053800000000    -0.0315199  
C191     C      0.668650000000     0.847180000000     0.997890000000    -0.00622043 
C192     C      0.649200000000     0.843540000000     0.939320000000    -0.0958138  
C193     C      0.666790000000     0.847490000000     0.072220000000    -0.0156845  
C194     C      0.687150000000     0.857600000000     0.131790000000    -0.107066   
C195     C      0.648310000000     0.827900000000     0.052760000000    -0.0312903  
C196     C      0.685660000000     0.856390000000     0.168440000000     0.0813086  
C197     C      0.641920000000     0.836240000000     0.166000000000     0.187233   
C198     C      0.649110000000     0.827890000000     0.016040000000    -0.0379447  
C199     C      0.669390000000     0.846680000000     0.959030000000     0.0503158  
C200     C      0.665690000000     0.847400000000     0.111480000000     0.0706564  
C201     C      0.731340000000     0.789580000000     0.249900000000    -0.142619   
C202     C      0.757530000000     0.676910000000     0.146860000000     0.0745672  
C203     C      0.796150000000     0.713580000000     0.146800000000     0.0743851  
C204     C      0.746140000000     0.689470000000     0.160140000000    -0.0939913  
C205     C      0.729240000000     0.716180000000     0.208490000000    -0.0373064  
C206     C      0.718680000000     0.728800000000     0.224230000000    -0.0320216  
C207     C      0.748580000000     0.727970000000     0.184060000000    -0.00576505 
C208     C      0.785430000000     0.726610000000     0.160610000000    -0.0941387  
C209     C      0.727440000000     0.753600000000     0.216350000000    -0.0161242  
C210     C      0.691030000000     0.757090000000     0.234410000000    -0.108194   
C211     C      0.746750000000     0.765490000000     0.192120000000    -0.032079   
C212     C      0.681010000000     0.770260000000     0.249730000000     0.0801452  
C213     C      0.720790000000     0.801920000000     0.267110000000     0.18603    
C214     C      0.757080000000     0.752770000000     0.175930000000    -0.0374494  
C215     C      0.760130000000     0.714570000000     0.167820000000     0.0492933  
C216     C      0.716470000000     0.767060000000     0.233450000000     0.0711794  
C217     C      0.540020000000     0.929250000000     0.428080000000    -0.141103   
C218     C      0.607170000000     0.860250000000     0.306590000000     0.0740563  
C219     C      0.645510000000     0.892970000000     0.325750000000     0.0731734  
C220     C      0.595120000000     0.872390000000     0.318860000000    -0.0941961  
C221     C      0.571060000000     0.892950000000     0.365150000000    -0.0375093  
C222     C      0.558920000000     0.904130000000     0.380520000000    -0.0316467  
C223     C      0.595330000000     0.907040000000     0.352630000000    -0.00542251 
C224     C      0.633930000000     0.905270000000     0.339390000000    -0.0939438  
C225     C      0.570880000000     0.929740000000     0.384930000000    -0.0150736  
C226     C      0.563500000000     0.965350000000     0.392970000000    -0.10686    
C227     C      0.595230000000     0.943830000000     0.372710000000    -0.0317826  
C228     C      0.550950000000     0.975910000000     0.408760000000     0.0805787  
C229     C      0.527510000000     0.940190000000     0.443650000000     0.186058   
C230     C      0.607140000000     0.932700000000     0.356390000000    -0.0375596  
C231     C      0.608310000000     0.894910000000     0.336490000000     0.0486437  
C232     C      0.557940000000     0.941570000000     0.402090000000     0.0696446  
C233     C      0.967630000000     0.508390000000     0.590580000000    -0.142774   
C234     C      0.952440000000     0.473020000000     0.816720000000     0.0739425  
C235     C      0.988680000000     0.511740000000     0.822290000000     0.0740165  
C236     C      0.952870000000     0.475780000000     0.780160000000    -0.0948964  
C237     C      0.953300000000     0.490860000000     0.703810000000    -0.0378904  
C238     C      0.955640000000     0.492080000000     0.667130000000    -0.0317275  
C239     C      0.974190000000     0.499140000000     0.725390000000    -0.00591807 
C240     C      0.989540000000     0.515190000000     0.785970000000    -0.0967441  
C241     C      0.978910000000     0.501610000000     0.651310000000    -0.0160733  
C242     C      0.998010000000     0.496030000000     0.596930000000    -0.109629   
C243     C      0.999800000000     0.510320000000     0.672930000000    -0.0329675  
C244     C      0.999850000000     0.495770000000     0.560460000000     0.0800259  
C245     C      0.970360000000     0.508830000000     0.553760000000     0.186811   
C246     C      0.997460000000     0.509010000000     0.709490000000    -0.0387344  
C247     C      0.971890000000     0.496840000000     0.764310000000     0.05002    
C248     C      0.981420000000     0.501880000000     0.612430000000     0.0715513  
C249     C      0.006060000000     0.478110000000     0.282100000000    -0.141992   
C250     C      0.958640000000     0.449890000000     0.057090000000     0.0740842  
C251     C      0.999740000000     0.482920000000     0.057080000000     0.0714864  
C252     C      0.959400000000     0.447650000000     0.093660000000    -0.0929094  
C253     C      0.968900000000     0.441270000000     0.170690000000    -0.037909   
C254     C      0.969480000000     0.441520000000     0.207580000000    -0.0320709  
C255     C      0.981460000000     0.463330000000     0.151520000000    -0.00476324 
C256     C      0.001300000000     0.480870000000     0.093370000000    -0.0904905  
C257     C      0.982930000000     0.463750000000     0.225790000000    -0.0158571  
C258     C      0.961910000000     0.454730000000     0.284090000000    -0.108028   
C259     C      0.995390000000     0.485710000000     0.206720000000    -0.0331031  
C260     C      0.962930000000     0.459060000000     0.320220000000     0.0812316  
C261     C      0.006740000000     0.483040000000     0.318250000000     0.188002   
C262     C      0.994520000000     0.485530000000     0.170100000000    -0.0390164  
C263     C      0.980770000000     0.463610000000     0.112370000000     0.0469379  
C264     C      0.983620000000     0.464630000000     0.264660000000     0.070451   
C265     C      0.902500000000     0.516310000000     0.976890000000    -0.141205   
C266     C      0.872560000000     0.626910000000     0.078840000000     0.0746003  
C267     C      0.833840000000     0.590290000000     0.077860000000     0.0744792  
C268     C      0.884060000000     0.614360000000     0.065940000000    -0.0948978  
C269     C      0.902990000000     0.577890000000     0.056870000000    -0.0379079  
C270     C      0.914050000000     0.565600000000     0.041480000000    -0.0315048  
C271     C      0.881630000000     0.576120000000     0.042130000000    -0.00601041 
C272     C      0.844680000000     0.577290000000     0.064360000000    -0.0951231  
C273     C      0.904220000000     0.551600000000     0.010650000000    -0.0154912  
C274     C      0.941960000000     0.549840000000     0.993280000000    -0.106992   
C275     C      0.882860000000     0.550010000000     0.995920000000    -0.031508   
C276     C      0.953050000000     0.537650000000     0.977970000000     0.0798191  
C277     C      0.914120000000     0.504980000000     0.959740000000     0.185782   
C278     C      0.871600000000     0.561960000000     0.011650000000    -0.0379166  
C279     C      0.870020000000     0.589370000000     0.058020000000     0.0499147  
C280     C      0.916350000000     0.538960000000     0.993750000000     0.0700915  
C281     C      0.343810000000     0.142820000000     0.803100000000    -0.141761   
C282     C      0.296300000000     0.137430000000     0.026710000000     0.0737503  
C283     C      0.337240000000     0.145040000000     0.029710000000     0.0734817  
C284     C      0.295810000000     0.133740000000     0.990310000000    -0.0932433  
C285     C      0.303960000000     0.142080000000     0.911980000000    -0.0372992  
C286     C      0.304870000000     0.140870000000     0.875260000000    -0.0323131  
C287     C      0.317210000000     0.134450000000     0.933550000000    -0.00562376 
C288     C      0.337530000000     0.141910000000     0.993270000000    -0.0932727  
C289     C      0.319380000000     0.132430000000     0.859070000000    -0.0157832  
C290     C      0.299720000000     0.121390000000     0.799480000000    -0.107358   
C291     C      0.332610000000     0.124760000000     0.880350000000    -0.0324549  
C292     C      0.301500000000     0.122440000000     0.762810000000     0.0787703  
C293     C      0.345240000000     0.143480000000     0.766040000000     0.184284   
C294     C      0.331370000000     0.125540000000     0.917130000000    -0.0375945  
C295     C      0.316750000000     0.136460000000     0.972830000000     0.0483421  
C296     C      0.320990000000     0.132140000000     0.820050000000     0.0696061  
C297     C      0.346420000000     0.193080000000     0.301530000000    -0.140553   
C298     C      0.300370000000     0.151940000000     0.525850000000     0.0737329  
C299     C      0.341350000000     0.184890000000     0.530420000000     0.0736535  
C300     C      0.300440000000     0.155710000000     0.489520000000    -0.094179   
C301     C      0.304020000000     0.178420000000     0.415930000000    -0.0381761  
C302     C      0.304700000000     0.180410000000     0.379140000000    -0.0318895  
C303     C      0.322710000000     0.176940000000     0.434210000000    -0.00581708 
C304     C      0.342210000000     0.188830000000     0.494030000000    -0.0942166  
C305     C      0.323870000000     0.180470000000     0.359630000000    -0.015239   
C306     C      0.302280000000     0.170760000000     0.300700000000    -0.106468   
C307     C      0.342560000000     0.178990000000     0.378220000000    -0.0315778  
C308     C      0.302960000000     0.170680000000     0.263920000000     0.0793227  
C309     C      0.346710000000     0.192990000000     0.264430000000     0.186023   
C310     C      0.342090000000     0.177480000000     0.415000000000    -0.0379647  
C311     C      0.321680000000     0.174020000000     0.473120000000     0.0490398  
C312     C      0.324170000000     0.181490000000     0.320180000000     0.0690784  
C313     C      0.447460000000     0.057000000000     0.498750000000    -0.143065   
C314     C      0.340520000000     0.088450000000     0.607670000000     0.0736214  
C315     C      0.378930000000     0.125350000000     0.607440000000     0.0736464  
C316     C      0.351500000000     0.075610000000     0.593870000000    -0.0937554  
C317     C      0.375950000000     0.056000000000     0.545100000000    -0.0372971  
C318     C      0.387680000000     0.044790000000     0.528400000000    -0.0320816  
C319     C      0.388710000000     0.075050000000     0.569600000000    -0.00584015 
C320     C      0.390390000000     0.113200000000     0.593150000000    -0.0943452  
C321     C      0.412490000000     0.052650000000     0.535390000000    -0.0161961  
C322     C      0.415630000000     0.016550000000     0.514780000000    -0.108089   
C323     C      0.425180000000     0.071350000000     0.560140000000    -0.0321703  
C324     C      0.428760000000     0.006910000000     0.498050000000     0.0796876  
C325     C      0.459630000000     0.046840000000     0.480170000000     0.186751   
C326     C      0.413380000000     0.082250000000     0.577320000000    -0.0375447  
C327     C      0.376730000000     0.088000000000     0.586000000000     0.0488804  
C328     C      0.425430000000     0.041870000000     0.516320000000     0.0713422  
C329     C      0.114130000000     0.381130000000     0.872810000000    -0.142183   
C330     C      0.995740000000     0.418530000000     0.908160000000     0.0704056  
C331     C      0.033900000000     0.455380000000     0.914370000000     0.0741571  
C332     C      0.007920000000     0.405600000000     0.900290000000    -0.0900026  
C333     C      0.040040000000     0.387670000000     0.864510000000    -0.0380486  
C334     C      0.053330000000     0.375760000000     0.857040000000    -0.0313085  
C335     C      0.047060000000     0.404400000000     0.892580000000    -0.00494928 
C336     C      0.046630000000     0.442990000000     0.906960000000    -0.0937692  
C337     C      0.073820000000     0.380230000000     0.877650000000    -0.0158891  
C338     C      0.077130000000     0.343640000000     0.859010000000    -0.106989   
C339     C      0.080400000000     0.396550000000     0.906240000000    -0.031207   
C340     C      0.091310000000     0.332730000000     0.851680000000     0.0803377  
C341     C      0.127970000000     0.369480000000     0.867080000000     0.186691   
C342     C      0.067270000000     0.408570000000     0.913490000000    -0.0382783  
C343     C      0.033660000000     0.417800000000     0.899900000000     0.0480752  
C344     C      0.088520000000     0.368220000000     0.869290000000     0.0707773  
C345     C      0.290380000000     0.217560000000     0.717740000000    -0.141072   
C346     C      0.214170000000     0.296900000000     0.776380000000     0.0735851  
C347     C      0.181760000000     0.258060000000     0.794330000000     0.0722521  
C348     C      0.226740000000     0.285980000000     0.761530000000    -0.0937916  
C349     C      0.255680000000     0.260690000000     0.745320000000    -0.0373745  
C350     C      0.267820000000     0.249360000000     0.730340000000    -0.0317706  
C351     C      0.229820000000     0.248400000000     0.747300000000    -0.00557785 
C352     C      0.194140000000     0.246610000000     0.780640000000    -0.0943558  
C353     C      0.254540000000     0.225120000000     0.717730000000    -0.0150527  
C354     C      0.256860000000     0.194150000000     0.678080000000    -0.106771   
C355     C      0.228690000000     0.212850000000     0.719630000000    -0.0318706  
C356     C      0.268660000000     0.181480000000     0.667110000000     0.0813112  
C357     C      0.301930000000     0.204470000000     0.706560000000     0.186443   
C358     C      0.216530000000     0.224410000000     0.733760000000    -0.0374985  
C359     C      0.216790000000     0.260470000000     0.763380000000     0.0484462  
C360     C      0.267580000000     0.212410000000     0.703880000000     0.0698638  
C361     C      0.452410000000     0.476560000000     0.624990000000    -0.141043   
C362     C      0.491150000000     0.468590000000     0.849500000000     0.0729693  
C363     C      0.457400000000     0.475620000000     0.852590000000     0.07371    
C364     C      0.488180000000     0.465300000000     0.813000000000    -0.0945376  
C365     C      0.466740000000     0.447220000000     0.738040000000    -0.0382011  
C366     C      0.465100000000     0.446560000000     0.701210000000    -0.0316928  
C367     C      0.467950000000     0.466980000000     0.756900000000    -0.0059404  
C368     C      0.454230000000     0.472910000000     0.816120000000    -0.0948308  
C369     C      0.465130000000     0.465900000000     0.682360000000    -0.0153583  
C370     C      0.475020000000     0.455050000000     0.622900000000    -0.106075   
C371     C      0.466560000000     0.485740000000     0.701540000000    -0.0315634  
C372     C      0.475150000000     0.456400000000     0.586180000000     0.0794626  
C373     C      0.452550000000     0.477550000000     0.587950000000     0.18548    
C374     C      0.467710000000     0.486150000000     0.738310000000    -0.038205   
C375     C      0.469910000000     0.468010000000     0.795870000000     0.0491744  
C376     C      0.464150000000     0.465760000000     0.642970000000     0.0691905  
C377     C      0.516020000000     0.494710000000     0.313210000000    -0.141424   
C378     C      0.488950000000     0.516190000000     0.088000000000     0.0738902  
C379     C      0.520980000000     0.506610000000     0.086480000000     0.0728057  
C380     C      0.490430000000     0.517930000000     0.124710000000    -0.093562   
C381     C      0.484830000000     0.503970000000     0.201420000000    -0.037259   
C382     C      0.484550000000     0.502620000000     0.238190000000    -0.0320496  
C383     C      0.506900000000     0.512220000000     0.182460000000    -0.00564131 
C384     C      0.522640000000     0.507740000000     0.123270000000    -0.0935525  
C385     C      0.506200000000     0.509040000000     0.256990000000    -0.0157365  
C386     C      0.494450000000     0.517250000000     0.316220000000    -0.107578   
C387     C      0.528270000000     0.517210000000     0.238320000000    -0.0322472  
C388     C      0.493100000000     0.514380000000     0.352730000000     0.0804382  
C389     C      0.514780000000     0.492290000000     0.350180000000     0.185915   
C390     C      0.528660000000     0.518980000000     0.201520000000    -0.0375545  
C391     C      0.506900000000     0.512970000000     0.143060000000     0.0484766  
C392     C      0.505580000000     0.506970000000     0.295990000000     0.0704929  
C393     C      0.866960000000     0.186450000000     0.776300000000    -0.1431     
C394     C      0.842590000000     0.188350000000     0.004850000000     0.0747096  
C395     C      0.843860000000     0.151330000000     0.001880000000     0.0744313  
C396     C      0.845390000000     0.191150000000     0.968340000000    -0.0953006  
C397     C      0.862920000000     0.196190000000     0.891360000000    -0.0380783  
C398     C      0.862670000000     0.197080000000     0.854540000000    -0.031944   
C399     C      0.846960000000     0.174380000000     0.909220000000    -0.00645799 
C400     C      0.846400000000     0.153420000000     0.965360000000    -0.0961038  
C401     C      0.846170000000     0.176300000000     0.835110000000    -0.0166732  
C402     C      0.822990000000     0.168310000000     0.778780000000    -0.109024   
C403     C      0.830200000000     0.154560000000     0.853030000000    -0.0318597  
C404     C      0.822260000000     0.167770000000     0.742130000000     0.0800537  
C405     C      0.865880000000     0.186200000000     0.739280000000     0.185302   
C406     C      0.830680000000     0.153560000000     0.889700000000    -0.0377558  
C407     C      0.846710000000     0.173240000000     0.948160000000     0.0502254  
C408     C      0.845410000000     0.177100000000     0.796210000000     0.0711942  
C409     C      0.802130000000     0.149770000000     0.280250000000    -0.137655   
C410     C      0.845420000000     0.143890000000     0.501870000000     0.0743736  
C411     C      0.806590000000     0.141740000000     0.503270000000     0.0750635  
C412     C      0.845280000000     0.144080000000     0.465040000000    -0.094612   
C413     C      0.834140000000     0.133570000000     0.386380000000    -0.0373298  
C414     C      0.833800000000     0.135580000000     0.349690000000    -0.0332998  
C415     C      0.826090000000     0.146290000000     0.408070000000    -0.00650037 
C416     C      0.805870000000     0.141930000000     0.466550000000    -0.0951489  
C417     C      0.825450000000     0.150370000000     0.334000000000    -0.0129657  
C418     C      0.841310000000     0.151990000000     0.272740000000    -0.0879738  
C419     C      0.818090000000     0.163600000000     0.355770000000    -0.0331247  
C420     C      0.838110000000     0.151070000000     0.236170000000     0.0428987  
C421     C      0.798970000000     0.148700000000     0.243610000000     0.185589   
C422     C      0.818380000000     0.161570000000     0.392340000000    -0.0370821  
C423     C      0.825650000000     0.143770000000     0.446990000000     0.0499418  
C424     C      0.823110000000     0.150950000000     0.295120000000     0.0634038  
C425     C      0.120750000000     0.290580000000     0.668690000000    -0.14295    
C426     C      0.134140000000     0.333300000000     0.441740000000     0.0743632  
C427     C      0.125120000000     0.291960000000     0.442900000000     0.0755418  
C428     C      0.132410000000     0.333440000000     0.478480000000    -0.0939402  
C429     C      0.118960000000     0.326080000000     0.556510000000    -0.0373956  
C430     C      0.119640000000     0.326260000000     0.593410000000    -0.0321312  
C431     C      0.127330000000     0.312560000000     0.537130000000    -0.00584859 
C432     C      0.122780000000     0.291310000000     0.479420000000    -0.0948689  
C433     C      0.128360000000     0.312640000000     0.611530000000    -0.0161998  
C434     C      0.141850000000     0.334600000000     0.669120000000    -0.10795    
C435     C      0.136760000000     0.299240000000     0.592260000000    -0.0318026  
C436     C      0.145900000000     0.334160000000     0.705190000000     0.0810456  
C437     C      0.125740000000     0.290440000000     0.704730000000     0.186533   
C438     C      0.136430000000     0.299340000000     0.555580000000    -0.0373658  
C439     C      0.127140000000     0.312390000000     0.497890000000     0.0496698  
C440     C      0.129510000000     0.312660000000     0.650460000000     0.0715859  
C441     C      0.164120000000     0.293610000000     0.978670000000    -0.142563   
C442     C      0.162900000000     0.337800000000     0.201710000000     0.0741825  
C443     C      0.155830000000     0.297120000000     0.204740000000     0.0739918  
C444     C      0.166910000000     0.338450000000     0.165410000000    -0.0950644  
C445     C      0.187580000000     0.336470000000     0.092230000000    -0.038095   
C446     C      0.189750000000     0.335940000000     0.055590000000    -0.0317086  
C447     C      0.167310000000     0.317430000000     0.109670000000    -0.00613778 
C448     C      0.159320000000     0.297000000000     0.168460000000    -0.0954826  
C449     C      0.171480000000     0.316520000000     0.035620000000    -0.0157063  
C450     C      0.183340000000     0.337530000000     0.976500000000    -0.10733    
C451     C      0.151080000000     0.297640000000     0.053330000000    -0.0314498  
C452     C      0.182640000000     0.336300000000     0.939770000000     0.080569   
C453     C      0.163750000000     0.292790000000     0.941720000000     0.188076   
C454     C      0.149150000000     0.297990000000     0.089900000000    -0.0378966  
C455     C      0.164790000000     0.317770000000     0.148390000000     0.0498542  
C456     C      0.173190000000     0.315960000000     0.996480000000     0.0706532  
C457     C      0.910500000000     0.189690000000     0.216900000000    -0.139337   
C458     C      0.063110000000     0.297250000000     0.290070000000     0.0748673  
C459     C      0.058870000000     0.258190000000     0.300950000000     0.0746017  
C460     C      0.038870000000     0.286270000000     0.278020000000    -0.0954957  
C461     C      0.997020000000     0.254910000000     0.226440000000    -0.0394088  
C462     C      0.974030000000     0.243500000000     0.210160000000    -0.0309383  
C463     C      0.999650000000     0.248870000000     0.261080000000    -0.00714477 
C464     C      0.034370000000     0.246610000000     0.289740000000    -0.0953193  
C465     C      0.952870000000     0.226120000000     0.228370000000    -0.0155163  
C466     C      0.923170000000     0.227280000000     0.185280000000    -0.107242   
C467     C      0.955580000000     0.220170000000     0.263280000000    -0.0315229  
C468     C      0.901930000000     0.215430000000     0.165060000000     0.0837257  
C469     C      0.888620000000     0.178060000000     0.196760000000     0.179091   
C470     C      0.978810000000     0.231270000000     0.279340000000    -0.0381586  
C471     C      0.024370000000     0.260700000000     0.277340000000     0.0514523  
C472     C      0.928440000000     0.214200000000     0.210310000000     0.069474   
C473     C      0.252960000000     0.347290000000     0.353390000000    -0.141584   
C474     C      0.400240000000     0.459180000000     0.438150000000     0.0732396  
C475     C      0.403480000000     0.423560000000     0.429760000000     0.0737159  
C476     C      0.375820000000     0.446690000000     0.426790000000    -0.094581   
C477     C      0.330120000000     0.420820000000     0.381820000000    -0.0376276  
C478     C      0.305800000000     0.408580000000     0.369970000000    -0.0319722  
C479     C      0.339110000000     0.408800000000     0.403300000000    -0.00579287 
C480     C      0.379090000000     0.410530000000     0.418120000000    -0.0939723  
C481     C      0.289850000000     0.383960000000     0.379150000000    -0.0158284  
C482     C      0.250200000000     0.383080000000     0.367020000000    -0.107765   
C483     C      0.298860000000     0.371790000000     0.400240000000    -0.0317815  
C484     C      0.225990000000     0.371030000000     0.355030000000     0.0802003  
C485     C      0.228820000000     0.335800000000     0.339850000000     0.185638   
C486     C      0.323210000000     0.384080000000     0.412250000000    -0.0376574  
C487     C      0.364950000000     0.422110000000     0.416320000000     0.0490682  
C488     C      0.263890000000     0.371140000000     0.366790000000     0.0706785  
C489     C      0.530130000000     0.006660000000     0.610950000000    -0.141835   
C490     C      0.508400000000     0.012190000000     0.839140000000     0.0743513  
C491     C      0.510040000000     0.975370000000     0.841440000000     0.0746585  
C492     C      0.511350000000     0.013240000000     0.802580000000    -0.094352   
C493     C      0.526550000000     0.015750000000     0.725980000000    -0.0378874  
C494     C      0.525620000000     0.015070000000     0.689140000000    -0.0319287  
C495     C      0.513750000000     0.994040000000     0.745770000000    -0.00567285 
C496     C      0.513210000000     0.975960000000     0.805000000000    -0.0946406  
C497     C      0.511890000000     0.992660000000     0.671280000000    -0.0157063  
C498     C      0.487520000000     0.975920000000     0.615870000000    -0.107843   
C499     C      0.499600000000     0.970930000000     0.691080000000    -0.0318687  
C500     C      0.485650000000     0.975390000000     0.579320000000     0.0797936  
C501     C      0.528110000000     0.005270000000     0.573960000000     0.185245   
C502     C      0.500440000000     0.971620000000     0.727810000000    -0.037457   
C503     C      0.513250000000     0.994690000000     0.784930000000     0.0496154  
C504     C      0.509820000000     0.991900000000     0.632210000000     0.0705278  
C505     C      0.458190000000     0.991210000000     0.110670000000    -0.142652   
C506     C      0.459170000000     0.973370000000     0.340880000000     0.0745141  
C507     C      0.495950000000     0.011670000000     0.335410000000     0.0735935  
C508     C      0.456120000000     0.971840000000     0.304340000000    -0.0950677  
C509     C      0.449930000000     0.981420000000     0.226430000000    -0.0379646  
C510     C      0.448410000000     0.978780000000     0.189780000000    -0.0319148  
C511     C      0.472080000000     0.987890000000     0.244020000000    -0.00638302 
C512     C      0.493660000000     0.010540000000     0.298770000000    -0.0955965  
C513     C      0.468880000000     0.982140000000     0.170210000000    -0.0163246  
C514     C      0.475690000000     0.964910000000     0.114890000000    -0.108452   
C515     C      0.490960000000     0.988480000000     0.187840000000    -0.0317971  
C516     C      0.475840000000     0.963750000000     0.078250000000     0.0811573  
C517     C      0.458150000000     0.989490000000     0.073730000000     0.187036   
C518     C      0.492590000000     0.991490000000     0.224360000000    -0.0375827  
C519     C      0.473770000000     0.990300000000     0.282860000000     0.0500427  
C520     C      0.467470000000     0.979320000000     0.131420000000     0.0714197  
C521     C      0.720500000000     0.079490000000     0.065120000000    -0.141169   
C522     C      0.568670000000     0.042700000000     0.999190000000     0.0742105  
C523     C      0.568900000000     0.005230000000     0.994250000000     0.0742352  
C524     C      0.592630000000     0.054340000000     0.012550000000    -0.0947379  
C525     C      0.636810000000     0.067490000000     0.061050000000    -0.0380275  
C526     C      0.660890000000     0.078880000000     0.073980000000    -0.0316724  
C527     C      0.630510000000     0.053180000000     0.030340000000    -0.00600138 
C528     C      0.592970000000     0.016390000000     0.006980000000    -0.0949789  
C529     C      0.679300000000     0.076510000000     0.056190000000    -0.0158109  
C530     C      0.715520000000     0.113370000000     0.082590000000    -0.107303   
C531     C      0.672840000000     0.062110000000     0.025420000000    -0.0313453  
C532     C      0.740150000000     0.126070000000     0.092610000000     0.0790144  
C533     C      0.745740000000     0.093160000000     0.073310000000     0.184949   
C534     C      0.648700000000     0.050440000000     0.012820000000    -0.0380203  
C535     C      0.605040000000     0.041150000000     0.016510000000     0.0496822  
C536     C      0.705280000000     0.089730000000     0.068790000000     0.0700696  
C537     C      0.164080000000     0.854000000000     0.458540000000    -0.142573   
C538     C      0.170650000000     0.813110000000     0.681570000000     0.0742142  
C539     C      0.162790000000     0.846220000000     0.683810000000     0.0746032  
C540     C      0.174140000000     0.815940000000     0.645130000000    -0.0938161  
C541     C      0.165650000000     0.815420000000     0.566790000000    -0.0372983  
C542     C      0.166810000000     0.817460000000     0.530090000000    -0.0318756  
C543     C      0.173490000000     0.836310000000     0.588180000000    -0.00565064 
C544     C      0.165720000000     0.849270000000     0.647360000000    -0.0937407  
C545     C      0.175420000000     0.840360000000     0.513860000000    -0.0161641  
C546     C      0.185930000000     0.831770000000     0.454030000000    -0.10872    
C547     C      0.183430000000     0.861280000000     0.534970000000    -0.0320713  
C548     C      0.184290000000     0.832300000000     0.417440000000     0.0802148  
C549     C      0.162820000000     0.854560000000     0.421580000000     0.186988   
C550     C      0.182710000000     0.859330000000     0.571710000000    -0.0375108  
C551     C      0.171330000000     0.833960000000     0.627350000000     0.0490672  
C552     C      0.175260000000     0.842160000000     0.474960000000     0.0712543  
C553     C      0.143490000000     0.792140000000     0.960520000000    -0.141151   
C554     C      0.118970000000     0.810180000000     0.186830000000     0.0741901  
C555     C      0.151630000000     0.801630000000     0.181510000000     0.0748048  
C556     C      0.114630000000     0.807030000000     0.150550000000    -0.0947877  
C557     C      0.126560000000     0.818910000000     0.071750000000    -0.0377776  
C558     C      0.126780000000     0.818990000000     0.034920000000    -0.0315842  
C559     C      0.126290000000     0.799570000000     0.090560000000    -0.00598718 
C560     C      0.147470000000     0.797870000000     0.145330000000    -0.0948837  
C561     C      0.126380000000     0.799520000000     0.016040000000    -0.015554   
C562     C      0.120020000000     0.812690000000     0.956070000000    -0.107353   
C563     C      0.124860000000     0.779580000000     0.035090000000    -0.0317556  
C564     C      0.124980000000     0.815700000000     0.920020000000     0.0798156  
C565     C      0.148810000000     0.795850000000     0.924310000000     0.185478   
C566     C      0.125070000000     0.779730000000     0.071920000000    -0.0381612  
C567     C      0.129130000000     0.801040000000     0.129380000000     0.0497823  
C568     C      0.129390000000     0.800910000000     0.976940000000     0.0698419  
C569     C      0.256430000000     0.890400000000     0.852770000000    -0.142065   
C570     C      0.407900000000     0.927320000000     0.916970000000     0.0741328  
C571     C      0.407160000000     0.964530000000     0.921350000000     0.0735865  
C572     C      0.384020000000     0.915380000000     0.903450000000    -0.0942636  
C573     C      0.329120000000     0.890920000000     0.893310000000    -0.0375845  
C574     C      0.305080000000     0.879140000000     0.880330000000    -0.032073   
C575     C      0.345590000000     0.915630000000     0.884950000000    -0.00588129 
C576     C      0.383100000000     0.953060000000     0.908390000000    -0.0943492  
C577     C      0.296790000000     0.891850000000     0.859110000000    -0.016222   
C578     C      0.259910000000     0.856150000000     0.832440000000    -0.108387   
C579     C      0.313090000000     0.916490000000     0.850710000000    -0.0321676  
C580     C      0.235060000000     0.844150000000     0.823520000000     0.0786884  
C581     C      0.231010000000     0.877400000000     0.845730000000     0.184866   
C582     C      0.337290000000     0.928210000000     0.863240000000    -0.0375066  
C583     C      0.371210000000     0.928190000000     0.899020000000     0.0491105  
C584     C      0.270870000000     0.879560000000     0.847060000000     0.0708233  
C585     C      0.808650000000     0.633270000000     0.773710000000    -0.14188    
C586     C      0.780810000000     0.635920000000     0.996480000000     0.0742345  
C587     C      0.818900000000     0.672880000000     0.990870000000     0.0745426  
C588     C      0.777370000000     0.634890000000     0.960020000000    -0.094576   
C589     C      0.801030000000     0.672060000000     0.878350000000    -0.037815   
C590     C      0.801680000000     0.670540000000     0.841680000000    -0.0317081  
C591     C      0.793310000000     0.651050000000     0.899360000000    -0.00590321 
C592     C      0.816040000000     0.672430000000     0.954360000000    -0.0944271  
C593     C      0.794620000000     0.647970000000     0.825150000000    -0.0159175  
C594     C      0.793620000000     0.661090000000     0.762970000000    -0.107807   
C595     C      0.785850000000     0.626800000000     0.846070000000    -0.0319855  
C596     C      0.799220000000     0.661390000000     0.727370000000     0.0805054  
C597     C      0.815240000000     0.634670000000     0.738030000000     0.186135   
C598     C      0.785210000000     0.628310000000     0.882740000000    -0.0375961  
C599     C      0.795310000000     0.653040000000     0.938400000000     0.0494688  
C600     C      0.798300000000     0.646920000000     0.786630000000     0.0707189  
C601     C      0.852130000000     0.676320000000     0.456820000000    -0.141484   
C602     C      0.812750000000     0.629540000000     0.233170000000     0.0745969  
C603     C      0.847440000000     0.669520000000     0.228830000000     0.074737   
C604     C      0.815910000000     0.629600000000     0.269630000000    -0.095054   
C605     C      0.839050000000     0.633410000000     0.343570000000    -0.0381269  
C606     C      0.840830000000     0.634440000000     0.380320000000    -0.0316181  
C607     C      0.837160000000     0.651600000000     0.324810000000    -0.0061907  
C608     C      0.850780000000     0.670400000000     0.265270000000    -0.0955593  
C609     C      0.840170000000     0.653420000000     0.399160000000    -0.0156352  
C610     C      0.830290000000     0.632300000000     0.458090000000    -0.107115   
C611     C      0.838230000000     0.671590000000     0.380060000000    -0.0313602  
C612     C      0.830170000000     0.633140000000     0.494750000000     0.081015   
C613     C      0.852010000000     0.676790000000     0.493880000000     0.186604   
C614     C      0.836990000000     0.670810000000     0.343310000000    -0.0380155  
C615     C      0.834790000000     0.650380000000     0.286030000000     0.0501406  
C616     C      0.840900000000     0.654010000000     0.438480000000     0.0702512  
C617     C      0.588110000000     0.556440000000     0.525110000000    -0.142107   
C618     C      0.741400000000     0.593180000000     0.579740000000     0.0743856  
C619     C      0.741830000000     0.631020000000     0.582460000000     0.0743838  
C620     C      0.716960000000     0.581250000000     0.568400000000    -0.0940958  
C621     C      0.661830000000     0.557500000000     0.562340000000    -0.0374876  
C622     C      0.637380000000     0.545700000000     0.551010000000    -0.0321205  
C623     C      0.678290000000     0.581900000000     0.552390000000    -0.00580587 
C624     C      0.717250000000     0.619590000000     0.571740000000    -0.0939301  
C625     C      0.628670000000     0.558100000000     0.529940000000    -0.0162925  
C626     C      0.591510000000     0.522290000000     0.504150000000    -0.108586   
C627     C      0.644890000000     0.582480000000     0.520170000000    -0.0321913  
C628     C      0.566670000000     0.510370000000     0.495230000000     0.0788786  
C629     C      0.562660000000     0.543490000000     0.518080000000     0.185283   
C630     C      0.669480000000     0.594190000000     0.531000000000    -0.03745    
C631     C      0.704460000000     0.594400000000     0.564300000000     0.049143   
C632     C      0.602540000000     0.545660000000     0.518880000000     0.0709025  
C633     C      0.041770000000     0.776260000000     0.763200000000    -0.141354   
C634     C      0.904820000000     0.671190000000     0.648260000000     0.0724145  
C635     C      0.904800000000     0.708870000000     0.650390000000     0.0730469  
C636     C      0.928340000000     0.682300000000     0.663160000000    -0.0949646  
C637     C      0.983890000000     0.717090000000     0.677950000000    -0.0398786  
C638     C      0.006570000000     0.728560000000     0.695390000000    -0.0299527  
C639     C      0.963900000000     0.718700000000     0.691400000000    -0.0058657  
C640     C      0.928080000000     0.720410000000     0.665880000000    -0.0952667  
C641     C      0.009610000000     0.741520000000     0.727000000000    -0.0143296  
C642     C      0.049110000000     0.743750000000     0.746040000000    -0.106638   
C643     C      0.989300000000     0.742590000000     0.740680000000    -0.0331509  
C644     C      0.072110000000     0.756190000000     0.762240000000     0.0800622  
C645     C      0.064400000000     0.787780000000     0.781140000000     0.186529   
C646     C      0.966800000000     0.731510000000     0.722920000000    -0.0381313  
C647     C      0.939950000000     0.707040000000     0.672840000000     0.04908    
C648     C      0.033860000000     0.754060000000     0.745400000000     0.0700727  
H1       H      0.733260000000     0.895010000000     0.758500000000     0.0249539  
H2       H      0.765630000000     0.082500000000     0.637370000000     0.0235461  
H3       H      0.763350000000     0.960000000000     0.684000000000     0.0371344  
H4       H      0.733850000000     0.017810000000     0.713290000000     0.0360311  
H5       H      0.743220000000     0.040190000000     0.655390000000     0.0553801  
H6       H      0.711950000000     0.976230000000     0.736570000000     0.0372166  
H7       H      0.810530000000     0.044280000000     0.688840000000     0.0647541  
H8       H      0.755200000000     0.936520000000     0.736060000000     0.0516222  
H9       H      0.686000000000     0.934690000000     0.721710000000     0.0517803  
H10      H      0.785650000000     0.001950000000     0.661650000000     0.0360088  
H11      H      0.664730000000     0.893550000000     0.745560000000     0.025026   
H12      H      0.846470000000     0.082300000000     0.690210000000     0.0868129  
H13      H      0.847150000000     0.110050000000     0.681900000000     0.107583   
H14      H      0.916860000000     0.410790000000     0.468200000000     0.0250249  
H15      H      0.900000000000     0.227170000000     0.579180000000     0.0229308  
H16      H      0.885800000000     0.328420000000     0.482700000000     0.0370681  
H17      H      0.935170000000     0.311640000000     0.568820000000     0.0358088  
H18      H      0.919030000000     0.266820000000     0.551040000000     0.0556191  
H19      H      0.953300000000     0.351750000000     0.540770000000     0.0372048  
H20      H      0.856590000000     0.274370000000     0.577390000000     0.0652472  
H21      H      0.898290000000     0.369820000000     0.492390000000     0.051802   
H22      H      0.968900000000     0.373530000000     0.488180000000     0.0519539  
H23      H      0.867470000000     0.288640000000     0.512080000000     0.0366047  
H24      H      0.987060000000     0.414890000000     0.465630000000     0.0249597  
H25      H      0.827100000000     0.245980000000     0.616370000000     0.0868324  
H26      H      0.829830000000     0.222190000000     0.636400000000     0.10558    
H27      H      0.052880000000     0.561460000000     0.418770000000     0.0233916  
H28      H      0.083090000000     0.753050000000     0.320370000000     0.0235374  
H29      H      0.079500000000     0.627560000000     0.347340000000     0.0368379  
H30      H      0.048130000000     0.682180000000     0.386310000000     0.0362884  
H31      H      0.059290000000     0.709860000000     0.334250000000     0.055846   
H32      H      0.026450000000     0.639170000000     0.404170000000     0.0374686  
H33      H      0.125560000000     0.709770000000     0.362540000000     0.06501    
H34      H      0.072900000000     0.603760000000     0.399960000000     0.0515199  
H35      H      0.001810000000     0.597340000000     0.383510000000     0.0524887  
H36      H      0.101270000000     0.670570000000     0.329940000000     0.0361194  
H37      H      0.982270000000     0.555070000000     0.403360000000     0.0226206  
H38      H      0.162300000000     0.747160000000     0.366550000000     0.0864518  
H39      H      0.163940000000     0.775670000000     0.360650000000     0.105141   
H40      H      0.658120000000     0.749440000000     0.817360000000     0.0250631  
H41      H      0.499710000000     0.568750000000     0.949710000000     0.023787   
H42      H      0.621080000000     0.686470000000     0.894100000000     0.0374973  
H43      H      0.533050000000     0.630100000000     0.866730000000     0.0362466  
H44      H      0.520660000000     0.610470000000     0.928590000000     0.055752   
H45      H      0.553970000000     0.670750000000     0.840140000000     0.0370739  
H46      H      0.580440000000     0.601590000000     0.892020000000     0.0655392  
H47      H      0.637240000000     0.708470000000     0.841820000000     0.0519239  
H48      H      0.570730000000     0.712600000000     0.850460000000     0.051789   
H49      H      0.600210000000     0.645310000000     0.919330000000     0.03684    
H50      H      0.591850000000     0.752980000000     0.824340000000     0.0249035  
H51      H      0.575990000000     0.562540000000     0.891640000000     0.087038   
H52      H      0.548380000000     0.535920000000     0.902280000000     0.1069     
H53      H      0.161420000000     0.900950000000     0.280810000000     0.0236745  
H54      H      0.319160000000     0.088960000000     0.166640000000     0.0231117  
H55      H      0.218380000000     0.982790000000     0.282280000000     0.0372735  
H56      H      0.267180000000     0.005620000000     0.171840000000     0.0357971  
H57      H      0.300320000000     0.046850000000     0.186180000000     0.055328   
H58      H      0.246700000000     0.963020000000     0.192050000000     0.0378321  
H59      H      0.235830000000     0.049450000000     0.217600000000     0.064714   
H60      H      0.183340000000     0.943260000000     0.261580000000     0.0520057  
H61      H      0.247630000000     0.936890000000     0.241750000000     0.0524264  
H62      H      0.239090000000     0.025250000000     0.262630000000     0.0352123  
H63      H      0.225140000000     0.894410000000     0.261110000000     0.025081   
H64      H      0.237430000000     0.087240000000     0.219190000000     0.0862548  
H65      H      0.264120000000     0.115120000000     0.209480000000     0.105331   
H66      H      0.389400000000     0.236070000000     0.117730000000     0.0236116  
H67      H      0.418470000000     0.420800000000     0.990910000000     0.0233011  
H68      H      0.414280000000     0.297080000000     0.037650000000     0.0372834  
H69      H      0.384830000000     0.354950000000     0.066960000000     0.0362339  
H70      H      0.394660000000     0.378590000000     0.010060000000     0.0557356  
H71      H      0.363640000000     0.313640000000     0.091710000000     0.0374496  
H72      H      0.461090000000     0.379840000000     0.041210000000     0.0652386  
H73      H      0.409200000000     0.276920000000     0.092990000000     0.0514574  
H74      H      0.338070000000     0.270800000000     0.078640000000     0.0521377  
H75      H      0.435660000000     0.338500000000     0.013540000000     0.0361799  
H76      H      0.318840000000     0.230170000000     0.104490000000     0.0250528  
H77      H      0.497910000000     0.417170000000     0.041770000000     0.0866013  
H78      H      0.499590000000     0.445330000000     0.032450000000     0.106004   
H79      H      0.688460000000     0.803460000000     0.682630000000     0.0248919  
H80      H      0.640010000000     0.782510000000     0.384540000000     0.0221461  
H81      H      0.664460000000     0.774240000000     0.565000000000     0.0375581  
H82      H      0.649880000000     0.837080000000     0.508620000000     0.0364341  
H83      H      0.638120000000     0.774830000000     0.447440000000     0.0561238  
H84      H      0.646390000000     0.831980000000     0.572310000000     0.0382834  
H85      H      0.685620000000     0.851780000000     0.465950000000     0.0656289  
H86      H      0.687980000000     0.800450000000     0.618720000000     0.052621   
H87      H      0.619150000000     0.800270000000     0.616530000000     0.0527895  
H88      H      0.668030000000     0.779470000000     0.500640000000     0.0360499  
H89      H      0.620120000000     0.803330000000     0.680120000000     0.0250571  
H90      H      0.695450000000     0.879230000000     0.419240000000     0.086567   
H91      H      0.682730000000     0.870340000000     0.376930000000     0.105942   
H92      H      0.632960000000     0.838200000000     0.888650000000     0.0250498  
H93      H      0.702830000000     0.863590000000     0.182860000000     0.0227386  
H94      H      0.634660000000     0.812540000000     0.001790000000     0.0388511  
H95      H      0.700680000000     0.882520000000     0.067690000000     0.035148   
H96      H      0.705130000000     0.865700000000     0.119600000000     0.0550283  
H97      H      0.702530000000     0.881740000000     0.003430000000     0.0380221  
H98      H      0.626170000000     0.830460000000     0.114070000000     0.064695   
H99      H      0.633360000000     0.842720000000     0.952120000000     0.0530863  
H100     H      0.705530000000     0.850380000000     0.956070000000     0.0531556  
H101     H      0.633320000000     0.812320000000     0.065840000000     0.03585    
H102     H      0.704470000000     0.845220000000     0.892370000000     0.024775   
H103     H      0.603700000000     0.822250000000     0.166460000000     0.0873104  
H104     H      0.617710000000     0.831300000000     0.208240000000     0.105187   
H105     H      0.815830000000     0.723600000000     0.142200000000     0.0248286  
H106     H      0.661190000000     0.762150000000     0.248040000000     0.0244384  
H107     H      0.771590000000     0.762390000000     0.156810000000     0.0370467  
H108     H      0.703970000000     0.719300000000     0.243140000000     0.0363299  
H109     H      0.678910000000     0.739520000000     0.222270000000     0.0563011  
H110     H      0.722520000000     0.697300000000     0.216070000000     0.037469   
H111     H      0.751070000000     0.796840000000     0.251120000000     0.0652739  
H112     H      0.797150000000     0.745890000000     0.166480000000     0.0515824  
H113     H      0.726440000000     0.679440000000     0.164370000000     0.0520692  
H114     H      0.753650000000     0.784550000000     0.185350000000     0.0366816  
H115     H      0.746020000000     0.657450000000     0.141780000000     0.0250072  
H116     H      0.754630000000     0.827900000000     0.289080000000     0.0868131  
H117     H      0.729050000000     0.828320000000     0.307360000000     0.106758   
H118     H      0.665250000000     0.901430000000     0.329280000000     0.0218067  
H119     H      0.555370000000     0.994020000000     0.399690000000     0.021569   
H120     H      0.625630000000     0.944370000000     0.346660000000     0.0366581  
H121     H      0.540040000000     0.892530000000     0.388770000000     0.035302   
H122     H      0.576930000000     0.975670000000     0.372820000000     0.0545923  
H123     H      0.561330000000     0.873140000000     0.363610000000     0.0368172  
H124     H      0.536340000000     0.911460000000     0.437440000000     0.0642607  
H125     H      0.645080000000     0.922400000000     0.353120000000     0.0509249  
H126     H      0.575490000000     0.863930000000     0.314600000000     0.0513032  
H127     H      0.605380000000     0.963540000000     0.376000000000     0.0348252  
H128     H      0.596110000000     0.842660000000     0.293820000000     0.0226202  
H129     H      0.508770000000     0.911090000000     0.479280000000     0.0872975  
H130     H      0.505300000000     0.936760000000     0.487860000000     0.104699   
H131     H      0.003020000000     0.526260000000     0.837930000000     0.026396   
H132     H      0.012220000000     0.489970000000     0.549930000000     0.0245512  
H133     H      0.013920000000     0.515260000000     0.725260000000     0.0389188  
H134     H      0.939170000000     0.485070000000     0.651170000000     0.0358353  
H135     H      0.009020000000     0.490810000000     0.612840000000     0.0569783  
H136     H      0.935140000000     0.483380000000     0.715240000000     0.0368528  
H137     H      0.955660000000     0.514310000000     0.602190000000     0.064966   
H138     H      0.004200000000     0.532050000000     0.774920000000     0.0536217  
H139     H      0.938900000000     0.461060000000     0.764410000000     0.0519595  
H140     H      0.018030000000     0.518100000000     0.661600000000     0.0368201  
H141     H      0.937780000000     0.456180000000     0.827880000000     0.0236247  
H142     H      0.947990000000     0.524530000000     0.545920000000     0.0870546  
H143     H      0.964060000000     0.524320000000     0.507980000000     0.105764   
H144     H      0.015970000000     0.496910000000     0.043660000000     0.0265811  
H145     H      0.945580000000     0.450880000000     0.334350000000     0.0224665  
H146     H      0.003780000000     0.502950000000     0.156420000000     0.0387501  
H147     H      0.959700000000     0.424370000000     0.221860000000     0.0364421  
H148     H      0.944190000000     0.444390000000     0.271260000000     0.0564112  
H149     H      0.958820000000     0.423830000000     0.157270000000     0.0374368  
H150     H      0.023000000000     0.486330000000     0.267010000000     0.0657284  
H151     H      0.018500000000     0.493050000000     0.106450000000     0.0512088  
H152     H      0.943020000000     0.434090000000     0.107180000000     0.0518931  
H153     H      0.005430000000     0.503150000000     0.220230000000     0.037806   
H154     H      0.941590000000     0.437600000000     0.043670000000     0.0251935  
H155     H      0.044920000000     0.507180000000     0.317120000000     0.0870392  
H156     H      0.030820000000     0.508920000000     0.356060000000     0.107051   
H157     H      0.814110000000     0.580260000000     0.082090000000     0.0249237  
H158     H      0.972930000000     0.546580000000     0.979850000000     0.0239369  
H159     H      0.855320000000     0.560590000000     0.999490000000     0.0379372  
H160     H      0.930210000000     0.566940000000     0.053980000000     0.0357853  
H161     H      0.953550000000     0.567720000000     0.004890000000     0.0550932  
H162     H      0.910960000000     0.588550000000     0.080560000000     0.0381742  
H163     H      0.882630000000     0.507680000000     0.975970000000     0.0644026  
H164     H      0.833290000000     0.557890000000     0.058850000000     0.0526439  
H165     H      0.903720000000     0.624310000000     0.061260000000     0.0529258  
H166     H      0.875020000000     0.539920000000     0.971790000000     0.0347603  
H167     H      0.884020000000     0.646360000000     0.084010000000     0.0250171  
H168     H      0.880940000000     0.478050000000     0.937220000000     0.0866165  
H169     H      0.907290000000     0.479120000000     0.919170000000     0.1061     
H170     H      0.353910000000     0.149680000000     0.044210000000     0.0248035  
H171     H      0.284380000000     0.114730000000     0.748150000000     0.0232766  
H172     H      0.341450000000     0.119010000000     0.932610000000     0.0366273  
H173     H      0.294700000000     0.147160000000     0.859450000000     0.0364011  
H174     H      0.281700000000     0.112510000000     0.811700000000     0.0557096  
H175     H      0.293270000000     0.149570000000     0.923320000000     0.0372352  
H176     H      0.360520000000     0.150500000000     0.818680000000     0.0647945  
H177     H      0.354320000000     0.144540000000     0.981220000000     0.0512245  
H178     H      0.279020000000     0.128860000000     0.976060000000     0.0515456  
H179     H      0.343740000000     0.117930000000     0.868510000000     0.0357982  
H180     H      0.279810000000     0.135540000000     0.038890000000     0.025166   
H181     H      0.383580000000     0.158360000000     0.766420000000     0.086712   
H182     H      0.370000000000     0.148910000000     0.724410000000     0.105087   
H183     H      0.357760000000     0.196620000000     0.545550000000     0.0250499  
H184     H      0.285440000000     0.161020000000     0.250300000000     0.018874   
H185     H      0.356570000000     0.176020000000     0.428410000000     0.0383067  
H186     H      0.290220000000     0.182030000000     0.366100000000     0.0348541  
H187     H      0.284550000000     0.161460000000     0.313620000000     0.0537699  
H188     H      0.288950000000     0.178240000000     0.430150000000     0.0377585  
H189     H      0.363670000000     0.202970000000     0.315700000000     0.064187   
H190     H      0.358910000000     0.203320000000     0.482300000000     0.0524926  
H191     H      0.284210000000     0.143830000000     0.474190000000     0.0524747  
H192     H      0.357350000000     0.178410000000     0.364390000000     0.0356866  
H193     H      0.283700000000     0.137190000000     0.537330000000     0.0248726  
H194     H      0.385040000000     0.216180000000     0.262230000000     0.0871277  
H195     H      0.370150000000     0.211070000000     0.221060000000     0.105054   
H196     H      0.390280000000     0.144890000000     0.612100000000     0.0240628  
H197     H      0.421000000000     0.987200000000     0.499430000000     0.0238148  
H198     H      0.423680000000     0.096370000000     0.596630000000     0.036736   
H199     H      0.377560000000     0.030490000000     0.509190000000     0.0364492  
H200     H      0.398370000000     0.004270000000     0.527670000000     0.0560427  
H201     H      0.357100000000     0.050160000000     0.537980000000     0.0374081  
H202     H      0.454480000000     0.076620000000     0.497920000000     0.0657739  
H203     H      0.409810000000     0.123780000000     0.586970000000     0.0512574  
H204     H      0.340210000000     0.056070000000     0.589500000000     0.0518268  
H205     H      0.444260000000     0.077480000000     0.566300000000     0.0369662  
H206     H      0.320940000000     0.078200000000     0.613030000000     0.0248958  
H207     H      0.484660000000     0.080730000000     0.457480000000     0.0869828  
H208     H      0.485100000000     0.055450000000     0.438350000000     0.105776   
H209     H      0.044710000000     0.474880000000     0.919680000000     0.0253876  
H210     H      0.081620000000     0.313870000000     0.842600000000     0.0235861  
H211     H      0.072810000000     0.421010000000     0.935700000000     0.0380764  
H212     H      0.047880000000     0.363470000000     0.834660000000     0.0358791  
H213     H      0.057300000000     0.332790000000     0.856630000000     0.0554663  
H214     H      0.024640000000     0.384240000000     0.847800000000     0.0382711  
H215     H      0.123380000000     0.400080000000     0.881420000000     0.0648771  
H216     H      0.066560000000     0.453150000000     0.906490000000     0.0522467  
H217     H      0.997240000000     0.386080000000     0.895180000000     0.0504311  
H218     H      0.095660000000     0.399960000000     0.923250000000     0.0352381  
H219     H      0.975800000000     0.408350000000     0.908500000000     0.0257992  
H220     H      0.160280000000     0.399700000000     0.886420000000     0.0865095  
H221     H      0.162390000000     0.373030000000     0.881290000000     0.105189   
H222     H      0.164190000000     0.246560000000     0.807050000000     0.0216387  
H223     H      0.259770000000     0.167780000000     0.646650000000     0.0212749  
H224     H      0.196620000000     0.214410000000     0.733920000000     0.0363028  
H225     H      0.287690000000     0.259710000000     0.728810000000     0.0354851  
H226     H      0.239500000000     0.189710000000     0.665960000000     0.0547773  
H227     H      0.266750000000     0.279020000000     0.755800000000     0.0369284  
H228     H      0.298590000000     0.230650000000     0.739030000000     0.0645837  
H229     H      0.185920000000     0.226980000000     0.783840000000     0.0507405  
H230     H      0.243900000000     0.297580000000     0.748010000000     0.0518349  
H231     H      0.217670000000     0.194070000000     0.710810000000     0.0349861  
H232     H      0.222480000000     0.316630000000     0.773930000000     0.0251186  
H233     H      0.330030000000     0.221400000000     0.744290000000     0.0878879  
H234     H      0.329580000000     0.196390000000     0.722910000000     0.107583   
H235     H      0.445040000000     0.479760000000     0.867160000000     0.0251271  
H236     H      0.484920000000     0.448870000000     0.572060000000     0.0226243  
H237     H      0.468980000000     0.501770000000     0.752230000000     0.0382027  
H238     H      0.463580000000     0.430730000000     0.687640000000     0.035223   
H239     H      0.484400000000     0.446500000000     0.635340000000     0.05452    
H240     H      0.466730000000     0.432130000000     0.751830000000     0.0380105  
H241     H      0.442370000000     0.483540000000     0.639630000000     0.0641934  
H242     H      0.439720000000     0.474880000000     0.803790000000     0.0526619  
H243     H      0.500670000000     0.461520000000     0.798140000000     0.0522922  
H244     H      0.467270000000     0.501300000000     0.688210000000     0.0352888  
H245     H      0.505950000000     0.467000000000     0.861650000000     0.0237881  
H246     H      0.429070000000     0.492420000000     0.586750000000     0.0868663  
H247     H      0.434340000000     0.483390000000     0.545120000000     0.104873   
H248     H      0.533040000000     0.501810000000     0.072420000000     0.0227855  
H249     H      0.483420000000     0.521950000000     0.367000000000     0.023131   
H250     H      0.546100000000     0.525810000000     0.188100000000     0.0367895  
H251     H      0.467230000000     0.495990000000     0.251920000000     0.0368095  
H252     H      0.486550000000     0.527270000000     0.303840000000     0.0559231  
H253     H      0.467550000000     0.498000000000     0.187910000000     0.0374173  
H254     H      0.525450000000     0.487310000000     0.297950000000     0.0650816  
H255     H      0.535580000000     0.503570000000     0.135990000000     0.0508822  
H256     H      0.478430000000     0.522870000000     0.138550000000     0.0516709  
H257     H      0.545290000000     0.522520000000     0.252250000000     0.0359137  
H258     H      0.475480000000     0.519560000000     0.075090000000     0.0248804  
H259     H      0.537210000000     0.476250000000     0.350690000000     0.086985   
H260     H      0.531590000000     0.484280000000     0.392760000000     0.105339   
H261     H      0.843240000000     0.135430000000     0.014030000000     0.0232883  
H262     H      0.804230000000     0.159720000000     0.729940000000     0.0223431  
H263     H      0.818000000000     0.136600000000     0.902850000000     0.0377589  
H264     H      0.875070000000     0.214100000000     0.841290000000     0.0354558  
H265     H      0.805980000000     0.161450000000     0.793410000000     0.055908   
H266     H      0.875670000000     0.212460000000     0.905840000000     0.0375807  
H267     H      0.884610000000     0.194190000000     0.789520000000     0.0650638  
H268     H      0.847750000000     0.139400000000     0.950620000000     0.0523183  
H269     H      0.845550000000     0.206730000000     0.955890000000     0.0528473  
H270     H      0.817440000000     0.138240000000     0.838620000000     0.036202   
H271     H      0.840920000000     0.202250000000     0.019480000000     0.0250106  
H272     H      0.904360000000     0.206250000000     0.734400000000     0.0865945  
H273     H      0.888450000000     0.202840000000     0.694580000000     0.104676   
H274     H      0.791130000000     0.140910000000     0.517310000000     0.0248372  
H275     H      0.854430000000     0.153410000000     0.220120000000     0.0875219  
H276     H      0.812640000000     0.172070000000     0.408350000000     0.0377359  
H277     H      0.839340000000     0.124940000000     0.333620000000     0.0353333  
H278     H      0.858150000000     0.153750000000     0.283420000000     0.0474305  
H279     H      0.840070000000     0.121570000000     0.397710000000     0.0369238  
H280     H      0.787690000000     0.148680000000     0.297140000000     0.0641496  
H281     H      0.790030000000     0.140990000000     0.453590000000     0.0522505  
H282     H      0.860920000000     0.145440000000     0.450910000000     0.0519974  
H283     H      0.812000000000     0.175510000000     0.344520000000     0.0364313  
H284     H      0.861340000000     0.144970000000     0.514840000000     0.0247926  
H285     H      0.764180000000     0.145830000000     0.247220000000     0.0876573  
H286     H      0.772940000000     0.143410000000     0.203820000000     0.102609   
H287     H      0.122050000000     0.275320000000     0.429890000000     0.0248732  
H288     H      0.155500000000     0.351680000000     0.718660000000     0.02281    
H289     H      0.143740000000     0.289320000000     0.541740000000     0.0375776  
H290     H      0.113090000000     0.336750000000     0.607790000000     0.0362685  
H291     H      0.149080000000     0.352070000000     0.655730000000     0.0563337  
H292     H      0.111650000000     0.336320000000     0.543240000000     0.037185   
H293     H      0.111540000000     0.273420000000     0.654260000000     0.065446   
H294     H      0.117840000000     0.274350000000     0.493060000000     0.0520267  
H295     H      0.136050000000     0.350220000000     0.491530000000     0.0520048  
H296     H      0.144100000000     0.289030000000     0.605610000000     0.0366028  
H297     H      0.138820000000     0.350120000000     0.427790000000     0.0247488  
H298     H      0.111370000000     0.252290000000     0.704720000000     0.0867777  
H299     H      0.128160000000     0.266820000000     0.742800000000     0.107054   
H300     H      0.151510000000     0.280600000000     0.219250000000     0.0239848  
H301     H      0.189370000000     0.353410000000     0.925480000000     0.0186577  
H302     H      0.133140000000     0.283270000000     0.102710000000     0.0383532  
H303     H      0.205880000000     0.350630000000     0.043030000000     0.0350303  
H304     H      0.190690000000     0.355300000000     0.988980000000     0.0542589  
H305     H      0.201910000000     0.351590000000     0.107000000000     0.0377931  
H306     H      0.157790000000     0.276760000000     0.993440000000     0.0648941  
H307     H      0.157720000000     0.280730000000     0.156160000000     0.0524585  
H308     H      0.171000000000     0.354790000000     0.150640000000     0.0528473  
H309     H      0.136300000000     0.282710000000     0.038940000000     0.0361143  
H310     H      0.164350000000     0.354070000000     0.213850000000     0.0249424  
H311     H      0.151220000000     0.254960000000     0.940560000000     0.0873134  
H312     H      0.159850000000     0.269460000000     0.898970000000     0.10445    
H313     H      0.066170000000     0.246620000000     0.309480000000     0.024772   
H314     H      0.899200000000     0.226050000000     0.144800000000     0.0199887  
H315     H      0.980470000000     0.226370000000     0.306160000000     0.0376388  
H316     H      0.973020000000     0.248090000000     0.182950000000     0.0356058  
H317     H      0.935660000000     0.246600000000     0.180620000000     0.0554924  
H318     H      0.012910000000     0.268130000000     0.211620000000     0.040318   
H319     H      0.913570000000     0.179400000000     0.237200000000     0.061289   
H320     H      0.023650000000     0.226760000000     0.289440000000     0.0533571  
H321     H      0.031620000000     0.297710000000     0.268730000000     0.0539719  
H322     H      0.939800000000     0.207150000000     0.278400000000     0.0344279  
H323     H      0.073820000000     0.317110000000     0.289620000000     0.0253753  
H324     H      0.876330000000     0.146160000000     0.224180000000     0.0804489  
H325     H      0.863090000000     0.142150000000     0.186390000000     0.105808   
H326     H      0.413800000000     0.413940000000     0.430430000000     0.0254213  
H327     H      0.216020000000     0.380960000000     0.357220000000     0.0237593  
H328     H      0.329420000000     0.374340000000     0.429080000000     0.0376327  
H329     H      0.299560000000     0.418330000000     0.353200000000     0.0358262  
H330     H      0.257930000000     0.401540000000     0.377260000000     0.055496   
H331     H      0.341970000000     0.439670000000     0.373770000000     0.0372832  
H332     H      0.263730000000     0.338190000000     0.351380000000     0.0651168  
H333     H      0.371560000000     0.391630000000     0.409970000000     0.0522174  
H334     H      0.365490000000     0.456280000000     0.426490000000     0.0515599  
H335     H      0.286950000000     0.352880000000     0.408020000000     0.0364084  
H336     H      0.407850000000     0.478190000000     0.445880000000     0.0235097  
H337     H      0.231560000000     0.305990000000     0.320410000000     0.0870634  
H338     H      0.205790000000     0.307180000000     0.304680000000     0.106516   
H339     H      0.509570000000     0.960230000000     0.855770000000     0.0249127  
H340     H      0.467600000000     0.963310000000     0.568270000000     0.0228418  
H341     H      0.490090000000     0.954560000000     0.742110000000     0.03758    
H342     H      0.535200000000     0.032160000000     0.674700000000     0.0358617  
H343     H      0.471240000000     0.964280000000     0.631230000000     0.0553935  
H344     H      0.537210000000     0.033310000000     0.738930000000     0.0370976  
H345     H      0.547910000000     0.018280000000     0.623060000000     0.0646214  
H346     H      0.515250000000     0.961570000000     0.792610000000     0.0520434  
H347     H      0.511140000000     0.028010000000     0.788200000000     0.0522274  
H348     H      0.489190000000     0.953310000000     0.678190000000     0.0353956  
H349     H      0.506330000000     0.026570000000     0.851580000000     0.0249864  
H350     H      0.566150000000     0.028320000000     0.567150000000     0.086947   
H351     H      0.550440000000     0.013500000000     0.528300000000     0.105648   
H352     H      0.511840000000     0.027490000000     0.346620000000     0.0235091  
H353     H      0.483520000000     0.953260000000     0.066690000000     0.0230385  
H354     H      0.509800000000     0.996250000000     0.237320000000     0.0381874  
H355     H      0.431160000000     0.973800000000     0.176770000000     0.0357701  
H356     H      0.482460000000     0.954970000000     0.130220000000     0.056345   
H357     H      0.433880000000     0.978600000000     0.241020000000     0.0376818  
H358     H      0.450840000000     0.001690000000     0.123170000000     0.0653664  
H359     H      0.507520000000     0.025320000000     0.282960000000     0.0522418  
H360     H      0.440510000000     0.955880000000     0.292940000000     0.0529857  
H361     H      0.507050000000     0.991360000000     0.173310000000     0.0367939  
H362     H      0.445400000000     0.958380000000     0.356530000000     0.0252122  
H363     H      0.438660000000     0.008390000000     0.067380000000     0.0871097  
H364     H      0.441790000000     0.994990000000     0.028300000000     0.10514    
H365     H      0.560180000000     0.985940000000     0.987480000000     0.0251365  
H366     H      0.746760000000     0.144100000000     0.104020000000     0.0229224  
H367     H      0.644360000000     0.039710000000     0.988860000000     0.0379752  
H368     H      0.665040000000     0.089480000000     0.098020000000     0.035053   
H369     H      0.704680000000     0.122340000000     0.085300000000     0.0547055  
H370     H      0.623030000000     0.069640000000     0.075290000000     0.0378385  
H371     H      0.713100000000     0.061270000000     0.054080000000     0.0643957  
H372     H      0.601960000000     0.005570000000     0.009840000000     0.0525734  
H373     H      0.601490000000     0.073610000000     0.019360000000     0.0526674  
H374     H      0.686540000000     0.060280000000     0.010480000000     0.0351005  
H375     H      0.559710000000     0.053560000000     0.996500000000     0.0251064  
H376     H      0.752400000000     0.066300000000     0.051630000000     0.0862998  
H377     H      0.779230000000     0.094310000000     0.059650000000     0.10631    
H378     H      0.158160000000     0.858320000000     0.698040000000     0.0255173  
H379     H      0.191910000000     0.822990000000     0.402410000000     0.0193311  
H380     H      0.189430000000     0.875930000000     0.587130000000     0.0370543  
H381     H      0.160270000000     0.801010000000     0.514330000000     0.0365296  
H382     H      0.195140000000     0.822850000000     0.465910000000     0.0553887  
H383     H      0.157980000000     0.797310000000     0.578260000000     0.0372458  
H384     H      0.156460000000     0.862920000000     0.474460000000     0.0656788  
H385     H      0.162920000000     0.863200000000     0.634970000000     0.0518691  
H386     H      0.179040000000     0.804000000000     0.631110000000     0.051578   
H387     H      0.190390000000     0.879190000000     0.523030000000     0.0359476  
H388     H      0.172760000000     0.798770000000     0.694100000000     0.0245743  
H389     H      0.147550000000     0.877640000000     0.422560000000     0.0873537  
H390     H      0.156370000000     0.873330000000     0.380200000000     0.105106   
H391     H      0.166410000000     0.799530000000     0.192650000000     0.025121   
H392     H      0.116900000000     0.824580000000     0.904930000000     0.019193   
H393     H      0.124580000000     0.764460000000     0.085880000000     0.0379461  
H394     H      0.128360000000     0.834870000000     0.021400000000     0.0353099  
H395     H      0.108750000000     0.819520000000     0.967390000000     0.0543692  
H396     H      0.127760000000     0.834560000000     0.085520000000     0.0383501  
H397     H      0.152030000000     0.784050000000     0.976280000000     0.0644737  
H398     H      0.159150000000     0.793370000000     0.129740000000     0.0528083  
H399     H      0.100170000000     0.809490000000     0.139100000000     0.0527505  
H400     H      0.123940000000     0.763990000000     0.021580000000     0.0354859  
H401     H      0.107530000000     0.815120000000     0.202240000000     0.0249689  
H402     H      0.173070000000     0.781960000000     0.927240000000     0.087019   
H403     H      0.174750000000     0.796800000000     0.887270000000     0.106263   
H404     H      0.415630000000     0.983790000000     0.928180000000     0.0234144  
H405     H      0.227750000000     0.826290000000     0.811220000000     0.022877   
H406     H      0.349510000000     0.947080000000     0.855660000000     0.0372906  
H407     H      0.292740000000     0.860230000000     0.887690000000     0.0358125  
H408     H      0.270560000000     0.847180000000     0.827620000000     0.0554994  
H409     H      0.334580000000     0.880730000000     0.910500000000     0.0369892  
H410     H      0.264540000000     0.908160000000     0.865570000000     0.0653484  
H411     H      0.373860000000     0.963650000000     0.906170000000     0.0514248  
H412     H      0.375850000000     0.896280000000     0.896050000000     0.0518255  
H413     H      0.307160000000     0.926640000000     0.834210000000     0.0366194  
H414     H      0.417090000000     0.916680000000     0.919740000000     0.0250094  
H415     H      0.225750000000     0.904390000000     0.870140000000     0.0870259  
H416     H      0.198340000000     0.876850000000     0.862500000000     0.106876   
H417     H      0.835520000000     0.687940000000     0.001960000000     0.025105   
H418     H      0.794610000000     0.672220000000     0.710000000000     0.02289    
H419     H      0.779320000000     0.611790000000     0.898100000000     0.0373912  
H420     H      0.808720000000     0.687250000000     0.826400000000     0.0357312  
H421     H      0.785520000000     0.671850000000     0.771850000000     0.0553887  
H422     H      0.807080000000     0.689790000000     0.890310000000     0.0373482  
H423     H      0.813560000000     0.623120000000     0.791930000000     0.065129   
H424     H      0.830510000000     0.686740000000     0.938690000000     0.0523153  
H425     H      0.760860000000     0.619790000000     0.948840000000     0.0520402  
H426     H      0.780010000000     0.609100000000     0.834120000000     0.0357661  
H427     H      0.766660000000     0.621250000000     0.012150000000     0.0249795  
H428     H      0.833180000000     0.614470000000     0.746860000000     0.0869287  
H429     H      0.839690000000     0.629040000000     0.705640000000     0.106758   
H430     H      0.860100000000     0.685540000000     0.213750000000     0.0248997  
H431     H      0.820700000000     0.615700000000     0.508490000000     0.022581   
H432     H      0.835270000000     0.684910000000     0.329330000000     0.0385473  
H433     H      0.842840000000     0.620390000000     0.393860000000     0.0350893  
H434     H      0.821190000000     0.614550000000     0.445330000000     0.0549127  
H435     H      0.839410000000     0.618520000000     0.329750000000     0.0381633  
H436     H      0.861850000000     0.693440000000     0.442460000000     0.0644339  
H437     H      0.865690000000     0.686700000000     0.277170000000     0.0529199  
H438     H      0.803190000000     0.613800000000     0.285010000000     0.0531819  
H439     H      0.837110000000     0.686200000000     0.393430000000     0.0356306  
H440     H      0.797570000000     0.613310000000     0.221510000000     0.0248654  
H441     H      0.874730000000     0.715080000000     0.495690000000     0.0871502  
H442     H      0.870030000000     0.700530000000     0.536990000000     0.105384   
H443     H      0.750970000000     0.650530000000     0.587830000000     0.0249644  
H444     H      0.559370000000     0.492610000000     0.482660000000     0.0219108  
H445     H      0.681620000000     0.612790000000     0.522200000000     0.03726    
H446     H      0.625120000000     0.526990000000     0.559350000000     0.0361917  
H447     H      0.602160000000     0.513350000000     0.499020000000     0.0552608  
H448     H      0.667660000000     0.547550000000     0.579400000000     0.0370626  
H449     H      0.596270000000     0.574160000000     0.538050000000     0.0654717  
H450     H      0.708330000000     0.630500000000     0.569730000000     0.0517823  
H451     H      0.708120000000     0.561870000000     0.562380000000     0.0516109  
H452     H      0.638610000000     0.592370000000     0.503740000000     0.0365617  
H453     H      0.750300000000     0.582250000000     0.582340000000     0.0247303  
H454     H      0.557360000000     0.570240000000     0.543170000000     0.0871962  
H455     H      0.529950000000     0.542770000000     0.534940000000     0.107658   
H456     H      0.896150000000     0.719860000000     0.645920000000     0.0240632  
H457     H      0.083610000000     0.747850000000     0.760350000000     0.0240546  
H458     H      0.951520000000     0.732660000000     0.734110000000     0.0379284  
H459     H      0.021820000000     0.727600000000     0.683730000000     0.035729   
H460     H      0.043490000000     0.726210000000     0.733720000000     0.0552427  
H461     H      0.982100000000     0.707400000000     0.653560000000     0.0380541  
H462     H      0.030120000000     0.784430000000     0.764050000000     0.0648541  
H463     H      0.936680000000     0.739680000000     0.672640000000     0.0522301  
H464     H      0.937020000000     0.671400000000     0.668160000000     0.0520906  
H465     H      0.990610000000     0.751780000000     0.765360000000     0.0346802  
H466     H      0.896150000000     0.651830000000     0.641970000000     0.0234106  
H467     H      0.056850000000     0.813590000000     0.804490000000     0.0866188  
H468     H      0.082440000000     0.813090000000     0.822650000000     0.105413   
N1       N      0.801300000000     0.088640000000     0.652950000000    -0.216198   
N2       N      0.697360000000     0.891140000000     0.753650000000    -0.198552   
N3       N      0.837530000000     0.091050000000     0.679390000000    -0.219248   
N4       N      0.866960000000     0.227220000000     0.594520000000    -0.217347   
N5       N      0.953390000000     0.416040000000     0.465670000000    -0.199207   
N6       N      0.835680000000     0.235370000000     0.616550000000    -0.218822   
N7       N      0.118210000000     0.756690000000     0.332970000000    -0.217196   
N8       N      0.016090000000     0.555050000000     0.412300000000    -0.200243   
N9       N      0.153810000000     0.756740000000     0.357150000000    -0.219019   
N10      N      0.527430000000     0.560290000000     0.932750000000    -0.216231   
N11      N      0.626610000000     0.754330000000     0.819160000000    -0.198842   
N12      N      0.558800000000     0.554940000000     0.903890000000    -0.218952   
N13      N      0.288890000000     0.094030000000     0.181400000000    -0.217066   
N14      N      0.191620000000     0.894510000000     0.272400000000    -0.199267   
N15      N      0.254970000000     0.096060000000     0.207890000000    -0.219      
N16      N      0.453660000000     0.425060000000     0.004770000000    -0.216929   
N17      N      0.352640000000     0.229970000000     0.112700000000    -0.199105   
N18      N      0.489400000000     0.426290000000     0.030740000000    -0.219015   
N19      N      0.663550000000     0.821540000000     0.388600000000    -0.218012   
N20      N      0.654730000000     0.804370000000     0.686010000000    -0.199333   
N21      N      0.685980000000     0.864910000000     0.401320000000    -0.219728   
N22      N      0.663350000000     0.844720000000     0.185430000000    -0.218111   
N23      N      0.668480000000     0.840900000000     0.885880000000    -0.199357   
N24      N      0.619710000000     0.828820000000     0.181550000000    -0.219644   
N25      N      0.695640000000     0.793040000000     0.264470000000    -0.216874   
N26      N      0.782400000000     0.688810000000     0.140640000000    -0.19903    
N27      N      0.735660000000     0.821220000000     0.288210000000    -0.218885   
N28      N      0.532350000000     0.963150000000     0.432530000000    -0.218286   
N29      N      0.632120000000     0.870300000000     0.310460000000    -0.199953   
N30      N      0.512350000000     0.928490000000     0.471400000000    -0.219858   
N31      N      0.985390000000     0.500920000000     0.538860000000    -0.217781   
N32      N      0.970610000000     0.490570000000     0.837500000000    -0.200067   
N33      N      0.959550000000     0.519050000000     0.534190000000    -0.219294   
N34      N      0.984980000000     0.472840000000     0.337400000000    -0.218667   
N35      N      0.978430000000     0.467890000000     0.039150000000    -0.199198   
N36      N      0.028820000000     0.500070000000     0.332110000000    -0.219871   
N37      N      0.939400000000     0.514900000000     0.962710000000    -0.216866   
N38      N      0.847590000000     0.615030000000     0.084390000000    -0.199067   
N39      N      0.900020000000     0.485550000000     0.938340000000    -0.218702   
N40      N      0.323930000000     0.134560000000     0.746090000000    -0.216969   
N41      N      0.316990000000     0.143410000000     0.046230000000    -0.198053   
N42      N      0.367680000000     0.151410000000     0.750990000000    -0.219339   
N43      N      0.324840000000     0.180390000000     0.245880000000    -0.217081   
N44      N      0.320780000000     0.166200000000     0.546120000000    -0.197961   
N45      N      0.368660000000     0.206990000000     0.247880000000    -0.219221   
N46      N      0.451230000000     0.021860000000     0.482500000000    -0.216974   
N47      N      0.354110000000     0.113190000000     0.614150000000    -0.199165   
N48      N      0.478290000000     0.061890000000     0.458180000000    -0.218665   
N49      N      0.116550000000     0.345630000000     0.854330000000    -0.217235   
N50      N      0.008630000000     0.443240000000     0.915230000000    -0.196858   
N51      N      0.151980000000     0.381580000000     0.877520000000    -0.218917   
N52      N      0.291190000000     0.186900000000     0.680360000000    -0.217927   
N53      N      0.191630000000     0.283000000000     0.792060000000    -0.199863   
N54      N      0.322180000000     0.207940000000     0.724770000000    -0.220282   
N55      N      0.465340000000     0.468750000000     0.568850000000    -0.217294   
N56      N      0.476150000000     0.474150000000     0.869080000000    -0.198688   
N57      N      0.438400000000     0.485590000000     0.571960000000    -0.219432   
N58      N      0.502010000000     0.501030000000     0.369580000000    -0.216645   
N59      N      0.503690000000     0.509970000000     0.069050000000    -0.198728   
N60      N      0.527970000000     0.483020000000     0.365820000000    -0.219348   
N61      N      0.843220000000     0.175270000000     0.722460000000    -0.218759   
N62      N      0.841240000000     0.168280000000     0.021380000000    -0.200025   
N63      N      0.887480000000     0.198450000000     0.721230000000    -0.219571   
N64      N      0.816740000000     0.148790000000     0.222040000000    -0.21287    
N65      N      0.826580000000     0.143540000000     0.520820000000    -0.199264   
N66      N      0.777530000000     0.146060000000     0.230500000000    -0.220705   
N67      N      0.137870000000     0.312450000000     0.723090000000    -0.217635   
N68      N      0.131230000000     0.312920000000     0.424220000000    -0.199407   
N69      N      0.120810000000     0.268570000000     0.719120000000    -0.219821   
N70      N      0.171450000000     0.314130000000     0.922590000000    -0.218825   
N71      N      0.157240000000     0.317230000000     0.221190000000    -0.199528   
N72      N      0.157240000000     0.270980000000     0.925780000000    -0.219453   
N73      N      0.885830000000     0.190870000000     0.168940000000    -0.220138   
N74      N      0.073270000000     0.283310000000     0.300500000000    -0.198859   
N75      N      0.870290000000     0.154950000000     0.206670000000    -0.251658   
N76      N      0.214890000000     0.347320000000     0.342630000000    -0.216699   
N77      N      0.414050000000     0.447770000000     0.439460000000    -0.199014   
N78      N      0.220910000000     0.314530000000     0.321530000000    -0.21903    
N79      N      0.505350000000     0.990510000000     0.558350000000    -0.217531   
N80      N      0.507000000000     0.993000000000     0.858290000000    -0.199142   
N81      N      0.549280000000     0.017000000000     0.554840000000    -0.219341   
N82      N      0.468640000000     0.977080000000     0.057730000000    -0.217914   
N83      N      0.479180000000     0.992910000000     0.356260000000    -0.199351   
N84      N      0.446160000000     0.998800000000     0.054900000000    -0.21921    
N85      N      0.755270000000     0.116160000000     0.088780000000    -0.21675    
N86      N      0.556800000000     0.018260000000     0.990390000000    -0.198999   
N87      N      0.760210000000     0.083920000000     0.062370000000    -0.218915   
N88      N      0.171640000000     0.842280000000     0.401300000000    -0.217835   
N89      N      0.164820000000     0.828010000000     0.700750000000    -0.198782   
N90      N      0.154400000000     0.868750000000     0.406860000000    -0.219427   
N91      N      0.138760000000     0.807020000000     0.903960000000    -0.217945   
N92      N      0.137750000000     0.808110000000     0.202050000000    -0.198921   
N93      N      0.165960000000     0.790590000000     0.911450000000    -0.219779   
N94      N      0.220580000000     0.854570000000     0.829430000000    -0.216894   
N95      N      0.419480000000     0.951770000000     0.925600000000    -0.199294   
N96      N      0.217280000000     0.886930000000     0.858780000000    -0.219137   
N97      N      0.809500000000     0.648060000000     0.714610000000    -0.217109   
N98      N      0.801710000000     0.654460000000     0.011720000000    -0.198972   
N99      N      0.829490000000     0.624800000000     0.728810000000    -0.219295   
N100     N      0.839710000000     0.655010000000     0.512570000000    -0.217728   
N101     N      0.828220000000     0.649480000000     0.212980000000    -0.199187   
N102     N      0.865790000000     0.698810000000     0.510210000000    -0.21953    
N103     N      0.552240000000     0.520850000000     0.501240000000    -0.216668   
N104     N      0.753830000000     0.617920000000     0.586430000000    -0.198875   
N105     N      0.548920000000     0.552900000000     0.531430000000    -0.219067   
N106     N      0.080390000000     0.778630000000     0.778080000000    -0.217003   
N107     N      0.892960000000     0.684280000000     0.642500000000    -0.19957    
N108     N      0.068900000000     0.806640000000     0.803230000000    -0.218679   
Ni1      Ni     0.822800000000     0.631830000000     0.614950000000     1.00063    
Ni2      Ni     0.824510000000     0.670390000000     0.611550000000     1.00139    
Ni3      Ni     0.152270000000     0.798810000000     0.800500000000     0.999727   
Ni4      Ni     0.149290000000     0.834940000000     0.803720000000     0.999583   
Ni5      Ni     0.487730000000     0.966070000000     0.958700000000     1.00635    
Ni6      Ni     0.488510000000     0.004250000000     0.957510000000     0.99906    
Ni7      Ni     0.142340000000     0.295550000000     0.324490000000     1.00281    
Ni8      Ni     0.145330000000     0.334670000000     0.320720000000     1.00109    
Ni9      Ni     0.826140000000     0.137920000000     0.120190000000     1.01439    
Ni10     Ni     0.821420000000     0.173160000000     0.122680000000     1.00827    
Ni11     Ni     0.484870000000     0.466570000000     0.466130000000     0.996716   
Ni12     Ni     0.481770000000     0.502520000000     0.472100000000     0.998891   
Ni13     Ni     0.171690000000     0.333820000000     0.819320000000     1.0016     
Ni14     Ni     0.136360000000     0.294490000000     0.827270000000     1.00284    
Ni15     Ni     0.342190000000     0.168040000000     0.649100000000     0.998631   
Ni16     Ni     0.302800000000     0.132460000000     0.642930000000     0.99698    
Ni17     Ni     0.993110000000     0.497580000000     0.940130000000     1.01272    
Ni18     Ni     0.954800000000     0.460440000000     0.936670000000     0.99557    
Ni19     Ni     0.683700000000     0.850010000000     0.289160000000     1.0007     
Ni20     Ni     0.644410000000     0.814190000000     0.284080000000     1.00385    
Ni21     Ni     0.833920000000     0.670600000000     0.109610000000     1.00437    
Ni22     Ni     0.795960000000     0.633210000000     0.115110000000     1.00126    
Ni23     Ni     0.509340000000     0.012220000000     0.455120000000     0.999634   
Ni24     Ni     0.474200000000     0.972480000000     0.459920000000     1.00295    
Ni25     Ni     0.301230000000     0.160400000000     0.143810000000     0.997845   
Ni26     Ni     0.340350000000     0.163180000000     0.148350000000     0.99762    
Ni27     Ni     0.472410000000     0.494320000000     0.970690000000     0.999764   
Ni28     Ni     0.508430000000     0.490970000000     0.967030000000     0.995801   
Ni29     Ni     0.136820000000     0.827060000000     0.305350000000     1.00031    
Ni30     Ni     0.172690000000     0.823740000000     0.297880000000     1.00193    
Ni31     Ni     0.964810000000     0.483640000000     0.435450000000     0.997847   
Ni32     Ni     0.004210000000     0.487190000000     0.441440000000     1.01258    
Ni33     Ni     0.814910000000     0.157000000000     0.622500000000     1.0069     
Ni34     Ni     0.853400000000     0.158280000000     0.621730000000     0.995661   
Ni35     Ni     0.643010000000     0.822730000000     0.784750000000     1.00842    
Ni36     Ni     0.680790000000     0.822490000000     0.787200000000     0.996598   
O1       O      0.814760000000     0.631020000000     0.663820000000    -0.453792   
O2       O      0.830990000000     0.635180000000     0.565960000000    -0.453384   
O3       O      0.857100000000     0.649350000000     0.627010000000    -0.453182   
O4       O      0.788680000000     0.616870000000     0.602600000000    -0.4498     
O5       O      0.790320000000     0.652940000000     0.599170000000    -0.449963   
O6       O      0.858480000000     0.685320000000     0.624470000000    -0.45429    
O7       O      0.833170000000     0.671490000000     0.562830000000    -0.452389   
O8       O      0.815980000000     0.666840000000     0.660510000000    -0.452255   
O9       O      0.159720000000     0.805760000000     0.751370000000    -0.449496   
O10      O      0.144930000000     0.794380000000     0.849850000000    -0.453661   
O11      O      0.117780000000     0.781280000000     0.789620000000    -0.450961   
O12      O      0.186400000000     0.818650000000     0.811980000000    -0.456101   
O13      O      0.183730000000     0.852440000000     0.814720000000    -0.453685   
O14      O      0.115110000000     0.815070000000     0.792610000000    -0.453895   
O15      O      0.142020000000     0.828110000000     0.852890000000    -0.456957   
O16      O      0.156690000000     0.839440000000     0.754400000000    -0.449212   
O17      O      0.497970000000     0.971650000000     0.910460000000    -0.451885   
O18      O      0.477610000000     0.963060000000     0.006990000000    -0.452613   
O19      O      0.454130000000     0.951010000000     0.943660000000    -0.452012   
O20      O      0.521370000000     0.983560000000     0.973410000000    -0.4522     
O21      O      0.522140000000     0.019280000000     0.972810000000    -0.448637   
O22      O      0.454840000000     0.986690000000     0.942530000000    -0.452346   
O23      O      0.478030000000     0.998560000000     0.005620000000    -0.453722   
O24      O      0.498780000000     0.007370000000     0.909290000000    -0.450578   
O25      O      0.135730000000     0.295630000000     0.373580000000    -0.452533   
O26      O      0.149020000000     0.297920000000     0.275000000000    -0.454602   
O27      O      0.177050000000     0.312450000000     0.334150000000    -0.452339   
O28      O      0.107890000000     0.281270000000     0.314690000000    -0.450017   
O29      O      0.110720000000     0.317860000000     0.310820000000    -0.449877   
O30      O      0.179690000000     0.348870000000     0.330590000000    -0.452999   
O31      O      0.152030000000     0.334590000000     0.271450000000    -0.450602   
O32      O      0.138670000000     0.332290000000     0.370390000000    -0.44944    
O33      O      0.834940000000     0.145650000000     0.071760000000    -0.458288   
O34      O      0.818280000000     0.133070000000     0.168890000000    -0.462824   
O35      O      0.792130000000     0.119500000000     0.106780000000    -0.456494   
O36      O      0.859140000000     0.158380000000     0.135070000000    -0.464075   
O37      O      0.854620000000     0.191210000000     0.138650000000    -0.455371   
O38      O      0.788220000000     0.152630000000     0.107370000000    -0.456483   
O39      O      0.812120000000     0.165030000000     0.170950000000    -0.454757   
O40      O      0.831730000000     0.179250000000     0.074420000000    -0.451556   
O41      O      0.475190000000     0.459550000000     0.514650000000    -0.450077   
O42      O      0.494620000000     0.476120000000     0.418080000000    -0.450282   
O43      O      0.518410000000     0.485660000000     0.480950000000    -0.45498    
O44      O      0.450970000000     0.449740000000     0.451900000000    -0.449016   
O45      O      0.448080000000     0.483350000000     0.457910000000    -0.45332    
O46      O      0.515730000000     0.519330000000     0.486040000000    -0.45306    
O47      O      0.491310000000     0.509490000000     0.423630000000    -0.450716   
O48      O      0.472270000000     0.493170000000     0.520140000000    -0.454787   
O49      O      0.161540000000     0.332540000000     0.771350000000    -0.451361   
O50      O      0.179460000000     0.332460000000     0.867950000000    -0.454154   
O51      O      0.189100000000     0.317330000000     0.805550000000    -0.451549   
O52      O      0.152000000000     0.347720000000     0.833370000000    -0.454743   
O53      O      0.118930000000     0.311100000000     0.840900000000    -0.449822   
O54      O      0.156140000000     0.280550000000     0.813340000000    -0.456935   
O55      O      0.146580000000     0.295540000000     0.874930000000    -0.455743   
O56      O      0.128590000000     0.295800000000     0.778860000000    -0.455601   
O57      O      0.339470000000     0.175420000000     0.600690000000    -0.447019   
O58      O      0.342380000000     0.158240000000     0.696950000000    -0.454497   
O59      O      0.356200000000     0.148720000000     0.633780000000    -0.454113   
O60      O      0.325630000000     0.185070000000     0.664370000000    -0.45293    
O61      O      0.288760000000     0.152100000000     0.657010000000    -0.451521   
O62      O      0.319510000000     0.115120000000     0.629290000000    -0.448457   
O63      O      0.305150000000     0.125570000000     0.691630000000    -0.450158   
O64      O      0.302940000000     0.141800000000     0.594760000000    -0.448462   
O65      O      0.989700000000     0.502290000000     0.891250000000    -0.456256   
O66      O      0.994160000000     0.490500000000     0.988750000000    -0.456197   
O67      O      0.008690000000     0.478950000000     0.928470000000    -0.450209   
O68      O      0.974980000000     0.513780000000     0.951550000000    -0.453459   
O69      O      0.939250000000     0.479170000000     0.948050000000    -0.453012   
O70      O      0.972910000000     0.444140000000     0.925590000000    -0.448975   
O71      O      0.958060000000     0.456030000000     0.986020000000    -0.448893   
O72      O      0.954100000000     0.467360000000     0.887560000000    -0.452387   
O73      O      0.681940000000     0.855150000000     0.239780000000    -0.452651   
O74      O      0.682910000000     0.842680000000     0.338170000000    -0.457704   
O75      O      0.697820000000     0.829840000000     0.278600000000    -0.453011   
O76      O      0.666910000000     0.867750000000     0.299640000000    -0.453546   
O77      O      0.630190000000     0.834310000000     0.293770000000    -0.454926   
O78      O      0.661180000000     0.796360000000     0.274700000000    -0.452828   
O79      O      0.646050000000     0.809350000000     0.333710000000    -0.451998   
O80      O      0.645270000000     0.821570000000     0.234960000000    -0.45358    
O81      O      0.839440000000     0.667830000000     0.158560000000    -0.45177    
O82      O      0.825850000000     0.670990000000     0.060980000000    -0.451065   
O83      O      0.816600000000     0.687400000000     0.122130000000    -0.451227   
O84      O      0.848820000000     0.651320000000     0.097680000000    -0.45042    
O85      O      0.813220000000     0.616440000000     0.102050000000    -0.450882   
O86      O      0.781150000000     0.652470000000     0.127630000000    -0.450139   
O87      O      0.790200000000     0.636260000000     0.066280000000    -0.450591   
O88      O      0.804260000000     0.632580000000     0.163640000000    -0.449742   
O89      O      0.515180000000     0.009930000000     0.504250000000    -0.452405   
O90      O      0.501310000000     0.011770000000     0.406300000000    -0.453238   
O91      O      0.488410000000     0.025190000000     0.467210000000    -0.453412   
O92      O      0.527960000000     0.996680000000     0.443230000000    -0.455831   
O93      O      0.495340000000     0.959450000000     0.449060000000    -0.452765   
O94      O      0.455440000000     0.988170000000     0.470590000000    -0.451655   
O95      O      0.468730000000     0.974380000000     0.410660000000    -0.450971   
O96      O      0.481950000000     0.973110000000     0.508770000000    -0.45669    
O97      O      0.304870000000     0.170490000000     0.192280000000    -0.452491   
O98      O      0.300070000000     0.150300000000     0.095760000000    -0.447105   
O99      O      0.286970000000     0.127120000000     0.159140000000    -0.454183   
O100     O      0.318070000000     0.194000000000     0.128790000000    -0.450138   
O101     O      0.354630000000     0.196550000000     0.133090000000    -0.452873   
O102     O      0.323420000000     0.129570000000     0.163560000000    -0.450076   
O103     O      0.336710000000     0.153030000000     0.099980000000    -0.448554   
O104     O      0.341570000000     0.173370000000     0.196290000000    -0.451169   
O105     O      0.465870000000     0.483730000000     0.922600000000    -0.450147   
O106     O      0.481310000000     0.504810000000     0.018540000000    -0.449705   
O107     O      0.491900000000     0.527470000000     0.954500000000    -0.451301   
O108     O      0.455320000000     0.460860000000     0.986590000000    -0.450339   
O109     O      0.488930000000     0.457710000000     0.982250000000    -0.453833   
O110     O      0.525660000000     0.524550000000     0.952060000000    -0.453083   
O111     O      0.514590000000     0.500920000000     0.015530000000    -0.450806   
O112     O      0.499770000000     0.480960000000     0.918860000000    -0.450332   
O113     O      0.146780000000     0.836190000000     0.353300000000    -0.452653   
O114     O      0.129300000000     0.817900000000     0.256780000000    -0.44957    
O115     O      0.119900000000     0.793170000000     0.318990000000    -0.450735   
O116     O      0.156090000000     0.860690000000     0.291460000000    -0.453732   
O117     O      0.189610000000     0.857610000000     0.284100000000    -0.45024    
O118     O      0.153490000000     0.790220000000     0.312200000000    -0.454269   
O119     O      0.162660000000     0.814460000000     0.250020000000    -0.450126   
O120     O      0.180260000000     0.833010000000     0.346360000000    -0.454786   
O121     O      0.965500000000     0.475630000000     0.386950000000    -0.452783   
O122     O      0.966800000000     0.492020000000     0.484280000000    -0.453801   
O123     O      0.981420000000     0.517800000000     0.423210000000    -0.453296   
O124     O      0.950840000000     0.449770000000     0.448220000000    -0.449368   
O125     O      0.987680000000     0.452980000000     0.452660000000    -0.453292   
O126     O      0.018210000000     0.521160000000     0.429790000000    -0.457166   
O127     O      0.003290000000     0.494690000000     0.490030000000    -0.454307   
O128     O      0.002620000000     0.479680000000     0.392420000000    -0.456132   
O129     O      0.811570000000     0.148170000000     0.573750000000    -0.451915   
O130     O      0.820840000000     0.166100000000     0.671130000000    -0.457276   
O131     O      0.832150000000     0.190890000000     0.609290000000    -0.454894   
O132     O      0.800200000000     0.123240000000     0.635900000000    -0.45355    
O133     O      0.836020000000     0.124220000000     0.634710000000    -0.451424   
O134     O      0.868170000000     0.192230000000     0.609090000000    -0.453898   
O135     O      0.856740000000     0.167130000000     0.670520000000    -0.45686    
O136     O      0.847730000000     0.149660000000     0.572840000000    -0.449687   
O137     O      0.648190000000     0.832880000000     0.832920000000    -0.453667   
O138     O      0.640170000000     0.812460000000     0.736780000000    -0.453683   
O139     O      0.626960000000     0.789230000000     0.800040000000    -0.451061   
O140     O      0.661570000000     0.856270000000     0.769680000000    -0.450232   
O141     O      0.696910000000     0.856140000000     0.772570000000    -0.449505   
O142     O      0.662200000000     0.788840000000     0.801710000000    -0.449222   
O143     O      0.675630000000     0.812530000000     0.738690000000    -0.449184   
O144     O      0.683430000000     0.832530000000     0.835530000000    -0.448977   


