data_structure

_audit_creation_method RASPA-1.0
_audit_creation_date 2023-5-22
_audit_author_name 'Poobodin Mano'

_cell_length_a    32.5748
_cell_length_b    32.575
_cell_length_c    43.5557
_cell_angle_alpha 90
_cell_angle_beta  90
_cell_angle_gamma 90
_cell_volume      46218

_symmetry_cell_setting          triclinic
_symmetry_space_group_name_Hall 'P 1'
_symmetry_space_group_name_H-M  'P 1'
_symmetry_Int_Tables_number     1

_symmetry_equiv_pos_as_xyz 'x,y,z'

loop_
_atom_site_label
_atom_site_type_symbol
_atom_site_fract_x
_atom_site_fract_y
_atom_site_fract_z
_atom_site_charge
C1       C      0.496290000000     0.827290000000     0.052510000000     0.377015   
C2       C      0.494500000000     0.828530000000     0.435500000000     0.377919   
C3       C      0.417320000000     0.827970000000     0.994650000000     0.380183   
C4       C      0.573470000000     0.827880000000     0.993290000000     0.379957   
C5       C      0.496660000000     0.827090000000     0.185510000000     0.378007   
C6       C      0.494390000000     0.828670000000     0.302520000000     0.378205   
C7       C      0.573620000000     0.828210000000     0.245010000000     0.379171   
C8       C      0.417460000000     0.827520000000     0.243080000000     0.37928    
C9       C      0.828520000000     0.494150000000     0.051230000000     0.377047   
C10      C      0.828520000000     0.495270000000     0.434220000000     0.378083   
C11      C      0.828540000000     0.572760000000     0.993200000000     0.379952   
C12      C      0.828520000000     0.416610000000     0.992210000000     0.380143   
C13      C      0.828480000000     0.494640000000     0.184220000000     0.378093   
C14      C      0.828490000000     0.495360000000     0.301230000000     0.377863   
C15      C      0.828240000000     0.416940000000     0.243040000000     0.379191   
C16      C      0.828700000000     0.573100000000     0.242530000000     0.379192   
C17      C      0.495760000000     0.162040000000     0.052860000000     0.377067   
C18      C      0.494790000000     0.162030000000     0.435840000000     0.377763   
C19      C      0.573360000000     0.161870000000     0.993940000000     0.379974   
C20      C      0.417210000000     0.162250000000     0.994810000000     0.37998    
C21      C      0.495480000000     0.162020000000     0.185820000000     0.378068   
C22      C      0.494920000000     0.162010000000     0.302840000000     0.377712   
C23      C      0.417110000000     0.161810000000     0.244120000000     0.379065   
C24      C      0.573270000000     0.162220000000     0.244500000000     0.379096   
C25      C      0.163750000000     0.494480000000     0.052630000000     0.377103   
C26      C      0.160920000000     0.495060000000     0.435620000000     0.378201   
C27      C      0.162300000000     0.416700000000     0.993980000000     0.380036   
C28      C      0.162390000000     0.572870000000     0.994210000000     0.37995    
C29      C      0.160930000000     0.495590000000     0.302630000000     0.378118   
C30      C      0.163760000000     0.493730000000     0.185630000000     0.378076   
C31      C      0.162030000000     0.416570000000     0.245030000000     0.379262   
C32      C      0.162680000000     0.572730000000     0.243290000000     0.379287   
C33      C      0.750180000000     0.827580000000     0.992640000000     0.373508   
C34      C      0.906490000000     0.827540000000     0.993120000000     0.373437   
C35      C      0.828320000000     0.749470000000     0.493310000000     0.378701   
C36      C      0.828210000000     0.905770000000     0.492530000000     0.378184   
C37      C      0.750330000000     0.828090000000     0.246120000000     0.378771   
C38      C      0.906640000000     0.827770000000     0.245180000000     0.378033   
C39      C      0.828360000000     0.749820000000     0.244460000000     0.378703   
C40      C      0.828460000000     0.906110000000     0.246800000000     0.378222   
C41      C      0.750080000000     0.161890000000     0.492540000000     0.378783   
C42      C      0.906390000000     0.161730000000     0.491490000000     0.378244   
C43      C      0.828290000000     0.239900000000     0.991670000000     0.373328   
C44      C      0.828050000000     0.083590000000     0.992210000000     0.373265   
C45      C      0.828090000000     0.240270000000     0.245110000000     0.378689   
C46      C      0.827990000000     0.083960000000     0.247070000000     0.37843    
C47      C      0.749960000000     0.162290000000     0.245400000000     0.378741   
C48      C      0.906270000000     0.162120000000     0.246860000000     0.378382   
C49      C      0.162310000000     0.240020000000     0.493730000000     0.379038   
C50      C      0.162630000000     0.083700000000     0.493400000000     0.378539   
C51      C      0.240520000000     0.162180000000     0.994530000000     0.373541   
C52      C      0.084220000000     0.161800000000     0.992450000000     0.373342   
C53      C      0.162100000000     0.239860000000     0.246290000000     0.378679   
C54      C      0.162470000000     0.083550000000     0.245320000000     0.378271   
C55      C      0.240390000000     0.161870000000     0.244970000000     0.378653   
C56      C      0.084100000000     0.161690000000     0.246670000000     0.378346   
C57      C      0.240620000000     0.827690000000     0.494400000000     0.378784   
C58      C      0.084310000000     0.827620000000     0.493440000000     0.378479   
C59      C      0.162520000000     0.749570000000     0.993840000000     0.373426   
C60      C      0.162570000000     0.905880000000     0.993850000000     0.373483   
C61      C      0.162790000000     0.749410000000     0.242720000000     0.3789     
C62      C      0.162720000000     0.905720000000     0.244060000000     0.378501   
C63      C      0.240790000000     0.827410000000     0.242710000000     0.378883   
C64      C      0.084470000000     0.827470000000     0.244050000000     0.378494   
C65      C      0.162710000000     0.016440000000     0.217070000000    -0.00261654 
C66      C      0.162580000000     0.038060000000     0.245010000000    -0.0892337  
C67      C      0.162540000000     0.015740000000     0.272650000000    -0.00267246 
C68      C      0.162610000000     0.972830000000     0.272360000000    -0.00260984 
C69      C      0.162710000000     0.951220000000     0.244420000000    -0.0892339  
C70      C      0.162760000000     0.973540000000     0.216780000000    -0.00265555 
C71      C      0.162760000000     0.016360000000     0.021330000000     0.00202616 
C72      C      0.162690000000     0.038210000000     0.493470000000    -0.0893554  
C73      C      0.162620000000     0.016120000000     0.465750000000    -0.00260259 
C74      C      0.162570000000     0.973210000000     0.465890000000    -0.00262361 
C75      C      0.162630000000     0.951370000000     0.993750000000    -0.0935553  
C76      C      0.162760000000     0.973460000000     0.021470000000     0.00201844 
C77      C      0.973760000000     0.162650000000     0.274820000000    -0.00250313 
C78      C      0.951770000000     0.162020000000     0.247040000000    -0.0892165  
C79      C      0.973710000000     0.161260000000     0.219250000000    -0.00274663 
C80      C      0.016560000000     0.161130000000     0.219200000000    -0.00283178 
C81      C      0.038600000000     0.161760000000     0.246950000000    -0.0892023  
C82      C      0.016720000000     0.162530000000     0.274770000000    -0.00246206 
C83      C      0.973610000000     0.161200000000     0.019390000000     0.00180483 
C84      C      0.951890000000     0.161730000000     0.991500000000    -0.0934147  
C85      C      0.974100000000     0.162270000000     0.463820000000    -0.00257943 
C86      C      0.017050000000     0.162270000000     0.464060000000    -0.00238463 
C87      C      0.038730000000     0.161750000000     0.991990000000    -0.093545   
C88      C      0.016470000000     0.161220000000     0.019630000000     0.00185678 
C89      C      0.973790000000     0.827620000000     0.216980000000    -0.00263397 
C90      C      0.952140000000     0.827660000000     0.244900000000    -0.0891118  
C91      C      0.974410000000     0.827600000000     0.272550000000    -0.00268511 
C92      C      0.017320000000     0.827510000000     0.272300000000    -0.00261205 
C93      C      0.038970000000     0.827500000000     0.244380000000    -0.0892384  
C94      C      0.016690000000     0.827550000000     0.216720000000    -0.00264084 
C95      C      0.827660000000     0.973470000000     0.275010000000    -0.00261967 
C96      C      0.828360000000     0.951610000000     0.247160000000    -0.0891141  
C97      C      0.828890000000     0.973690000000     0.219440000000    -0.00280846 
C98      C      0.828740000000     0.016530000000     0.219510000000    -0.00264384 
C99      C      0.828070000000     0.038460000000     0.247300000000    -0.0892561  
C100     C      0.827530000000     0.016440000000     0.275080000000    -0.00253248 
C101     C      0.974040000000     0.827430000000     0.465430000000    -0.00261486 
C102     C      0.951980000000     0.827530000000     0.993200000000    -0.0935568  
C103     C      0.973860000000     0.827640000000     0.021010000000     0.00205934 
C104     C      0.016760000000     0.827680000000     0.021060000000     0.00196371 
C105     C      0.038820000000     0.827570000000     0.493300000000    -0.0893272  
C106     C      0.016950000000     0.827420000000     0.465480000000    -0.00265086 
C107     C      0.827990000000     0.016040000000     0.464530000000    -0.00263948 
C108     C      0.828040000000     0.038100000000     0.992300000000    -0.0934719  
C109     C      0.828100000000     0.016220000000     0.020110000000     0.00207971 
C110     C      0.828170000000     0.973320000000     0.020170000000     0.0018323  
C111     C      0.828130000000     0.951260000000     0.992400000000    -0.0934034  
C112     C      0.828010000000     0.973130000000     0.464590000000    -0.00258511 
C113     C      0.189720000000     0.639730000000     0.262110000000    -0.000922334
C114     C      0.162910000000     0.617890000000     0.242890000000    -0.0895437  
C115     C      0.136290000000     0.639520000000     0.223370000000    -0.000725622
C116     C      0.136900000000     0.682450000000     0.222770000000    -0.000701037
C117     C      0.163090000000     0.704260000000     0.242480000000    -0.0896351  
C118     C      0.189290000000     0.682630000000     0.262300000000    -0.000668378
C119     C      0.188840000000     0.349930000000     0.264940000000    -0.000724871
C120     C      0.161830000000     0.371410000000     0.245610000000    -0.0897152  
C121     C      0.134660000000     0.349410000000     0.226790000000    -0.000717076
C122     C      0.135130000000     0.306510000000     0.226770000000    -0.000858187
C123     C      0.161730000000     0.285020000000     0.246390000000    -0.089534   
C124     C      0.188280000000     0.307010000000     0.265720000000    -0.00126968 
C125     C      0.135490000000     0.639860000000     0.013240000000     0.00512344 
C126     C      0.162410000000     0.618030000000     0.994090000000    -0.0959324  
C127     C      0.189300000000     0.639660000000     0.474800000000    -0.000763137
C128     C      0.188790000000     0.682580000000     0.474270000000    -0.00129051 
C129     C      0.162410000000     0.704410000000     0.993830000000    -0.0934583  
C130     C      0.136010000000     0.682770000000     0.013500000000     0.00329698 
C131     C      0.189010000000     0.349850000000     0.474530000000    -0.000977024
C132     C      0.162300000000     0.371540000000     0.993930000000    -0.0957065  
C133     C      0.135620000000     0.349760000000     0.013310000000     0.00512137 
C134     C      0.136170000000     0.306840000000     0.013670000000     0.00348945 
C135     C      0.162340000000     0.285170000000     0.493860000000    -0.0897468  
C136     C      0.188510000000     0.306950000000     0.474100000000    -0.000626808
C137     C      0.123310000000     0.495440000000     0.385190000000    -0.00250391 
C138     C      0.160500000000     0.495340000000     0.401600000000    -0.0894517  
C139     C      0.197630000000     0.495520000000     0.385140000000    -0.00310042 
C140     C      0.197630000000     0.495710000000     0.353110000000    -0.00306021 
C141     C      0.160510000000     0.495730000000     0.336650000000    -0.0894332  
C142     C      0.123310000000     0.495630000000     0.353050000000    -0.00257932 
C143     C      0.201360000000     0.494030000000     0.103060000000    -0.00266814 
C144     C      0.164170000000     0.494160000000     0.086650000000    -0.0883458  
C145     C      0.127050000000     0.493940000000     0.103110000000    -0.00325053 
C146     C      0.127050000000     0.493680000000     0.135150000000    -0.00273798 
C147     C      0.164170000000     0.493640000000     0.151600000000    -0.0893747  
C148     C      0.201360000000     0.493770000000     0.135200000000    -0.00222081 
C149     C      0.350050000000     0.188450000000     0.224910000000    -0.000784639
C150     C      0.371940000000     0.161690000000     0.244150000000    -0.0897193  
C151     C      0.350360000000     0.134870000000     0.263530000000    -0.000889893
C152     C      0.307460000000     0.135390000000     0.264120000000    -0.00105056 
C153     C      0.285560000000     0.161690000000     0.244540000000    -0.0895525  
C154     C      0.307120000000     0.187940000000     0.224710000000    -0.00132024 
C155     C      0.640350000000     0.135860000000     0.225180000000    -0.000809317
C156     C      0.618430000000     0.162340000000     0.244620000000    -0.0895239  
C157     C      0.639980000000     0.188920000000     0.264200000000    -0.000945538
C158     C      0.682880000000     0.188430000000     0.264790000000    -0.000774944
C159     C      0.704810000000     0.162420000000     0.245000000000    -0.0896221  
C160     C      0.683270000000     0.136430000000     0.224980000000    -0.000638439
C161     C      0.350350000000     0.188930000000     0.475440000000    -0.00107397 
C162     C      0.372040000000     0.162410000000     0.994970000000    -0.0956196  
C163     C      0.350270000000     0.136040000000     0.014600000000     0.00500755 
C164     C      0.307340000000     0.136630000000     0.014990000000     0.0035095  
C165     C      0.285670000000     0.162510000000     0.994970000000    -0.0934279  
C166     C      0.307450000000     0.188450000000     0.475040000000    -0.000703668
C167     C      0.683450000000     0.188030000000     0.012870000000     0.00291634 
C168     C      0.704910000000     0.161860000000     0.992920000000    -0.0934792  
C169     C      0.682900000000     0.135650000000     0.473340000000    -0.00104626 
C170     C      0.640000000000     0.135100000000     0.474090000000    -0.000915713
C171     C      0.618530000000     0.161800000000     0.993640000000    -0.0959088  
C172     C      0.640540000000     0.188520000000     0.012840000000     0.00503404 
C173     C      0.494700000000     0.199170000000     0.385380000000    -0.00291779 
C174     C      0.494680000000     0.162020000000     0.401810000000    -0.0893882  
C175     C      0.494660000000     0.124860000000     0.385390000000    -0.00280866 
C176     C      0.494750000000     0.124850000000     0.353300000000    -0.00292136 
C177     C      0.494780000000     0.162010000000     0.336870000000    -0.089284   
C178     C      0.494710000000     0.199170000000     0.353290000000    -0.00301201 
C179     C      0.495800000000     0.199190000000     0.103300000000    -0.00292732 
C180     C      0.495840000000     0.162030000000     0.086870000000    -0.08841    
C181     C      0.495840000000     0.124870000000     0.103290000000    -0.00297894 
C182     C      0.495710000000     0.124860000000     0.135380000000    -0.0024576  
C183     C      0.495650000000     0.162020000000     0.151810000000    -0.0895684  
C184     C      0.495730000000     0.199180000000     0.135390000000    -0.00232449 
C185     C      0.854540000000     0.349620000000     0.224150000000    -0.000842385
C186     C      0.828100000000     0.371780000000     0.243460000000    -0.0894711  
C187     C      0.801620000000     0.350480000000     0.263280000000    -0.000951532
C188     C      0.802120000000     0.307590000000     0.264190000000    -0.000694209
C189     C      0.828050000000     0.285410000000     0.244500000000    -0.0896269  
C190     C      0.853980000000     0.306700000000     0.224270000000    -0.000616039
C191     C      0.802010000000     0.640340000000     0.223690000000    -0.000885735
C192     C      0.828800000000     0.618280000000     0.242800000000    -0.0895893  
C193     C      0.855530000000     0.639690000000     0.262360000000    -0.000962838
C194     C      0.854900000000     0.682580000000     0.263240000000    -0.000955978
C195     C      0.828570000000     0.704660000000     0.243790000000    -0.0896674  
C196     C      0.802420000000     0.683270000000     0.223790000000    -0.00115799 
C197     C      0.855350000000     0.349560000000     0.011140000000     0.00506094 
C198     C      0.828540000000     0.371450000000     0.991940000000    -0.0959436  
C199     C      0.801780000000     0.349850000000     0.472500000000    -0.000792562
C200     C      0.802290000000     0.306930000000     0.471930000000    -0.00121776 
C201     C      0.828520000000     0.285060000000     0.991570000000    -0.0934668  
C202     C      0.854810000000     0.306660000000     0.011350000000     0.00329231 
C203     C      0.801880000000     0.639600000000     0.512810000000    -0.000901206
C204     C      0.828580000000     0.617930000000     0.993380000000    -0.0958796  
C205     C      0.855300000000     0.639720000000     0.974060000000     0.000161025
C206     C      0.854750000000     0.682620000000     0.973720000000    -0.00134888 
C207     C      0.828520000000     0.704310000000     0.993490000000    -0.093571   
C208     C      0.802370000000     0.682530000000     0.513260000000    -0.00126912 
C209     C      0.791380000000     0.496670000000     0.383780000000    -0.00278793 
C210     C      0.828520000000     0.495460000000     0.400200000000    -0.0894972  
C211     C      0.865650000000     0.494310000000     0.383770000000    -0.0026775  
C212     C      0.865650000000     0.494330000000     0.351680000000    -0.00288021 
C213     C      0.828500000000     0.495480000000     0.335260000000    -0.0892538  
C214     C      0.791370000000     0.496690000000     0.351690000000    -0.00298201 
C215     C      0.865640000000     0.495350000000     0.133770000000    -0.00256395 
C216     C      0.828490000000     0.494400000000     0.150200000000    -0.0895432  
C217     C      0.791350000000     0.493220000000     0.133770000000    -0.00248054 
C218     C      0.791370000000     0.493060000000     0.101680000000    -0.00298    
C219     C      0.828520000000     0.494080000000     0.085250000000    -0.0884321  
C220     C      0.865650000000     0.495200000000     0.101690000000    -0.0030651  
C221     C      0.350500000000     0.800390000000     0.261900000000    -0.000956929
C222     C      0.372300000000     0.827280000000     0.242720000000    -0.0895446  
C223     C      0.350630000000     0.854010000000     0.223310000000    -0.000780383
C224     C      0.307700000000     0.853410000000     0.222770000000    -0.000597139
C225     C      0.285930000000     0.827140000000     0.242440000000    -0.0897637  
C226     C      0.307610000000     0.800840000000     0.262160000000    -0.000632167
C227     C      0.640280000000     0.801260000000     0.264770000000    -0.000753912
C228     C      0.618780000000     0.828410000000     0.245570000000    -0.0897371  
C229     C      0.640760000000     0.855690000000     0.226820000000    -0.000759531
C230     C      0.683660000000     0.855200000000     0.226750000000    -0.000928814
C231     C      0.705170000000     0.828450000000     0.246250000000    -0.0896034  
C232     C      0.683200000000     0.801790000000     0.265500000000    -0.00125372 
C233     C      0.350420000000     0.854770000000     0.475440000000    -0.000825783
C234     C      0.372160000000     0.828010000000     0.994770000000    -0.0960445  
C235     C      0.350420000000     0.801240000000     0.014100000000     0.00508592 
C236     C      0.307490000000     0.801710000000     0.014440000000     0.00299194 
C237     C      0.285780000000     0.827890000000     0.494670000000    -0.0897349  
C238     C      0.307520000000     0.854200000000     0.474990000000    -0.00103995 
C239     C      0.640190000000     0.801220000000     0.473440000000    -0.000839971
C240     C      0.618630000000     0.827890000000     0.992970000000    -0.0959466  
C241     C      0.640550000000     0.854570000000     0.012240000000     0.0050978  
C242     C      0.683450000000     0.854020000000     0.012430000000     0.00320812 
C243     C      0.705010000000     0.827820000000     0.992570000000    -0.0934573  
C244     C      0.683110000000     0.801710000000     0.472850000000    -0.0012267  
C245     C      0.493450000000     0.791650000000     0.385020000000    -0.00298277 
C246     C      0.494150000000     0.828750000000     0.401480000000    -0.0894485  
C247     C      0.494660000000     0.865950000000     0.385090000000    -0.00267395 
C248     C      0.494590000000     0.866020000000     0.352980000000    -0.00269727 
C249     C      0.494040000000     0.828870000000     0.336540000000    -0.0894997  
C250     C      0.493410000000     0.791710000000     0.352960000000    -0.00293926 
C251     C      0.496270000000     0.864160000000     0.103010000000    -0.00308372 
C252     C      0.496680000000     0.827060000000     0.086530000000    -0.0883733  
C253     C      0.497340000000     0.789860000000     0.102920000000    -0.00283522 
C254     C      0.497450000000     0.789780000000     0.135030000000    -0.00240485 
C255     C      0.496920000000     0.826910000000     0.151480000000    -0.0893295  
C256     C      0.496400000000     0.864090000000     0.135070000000    -0.00268032 
C257     C      0.496290000000     0.827290000000     0.552510000000     0.377934   
C258     C      0.494500000000     0.828530000000     0.935500000000     0.377562   
C259     C      0.417320000000     0.827970000000     0.494650000000     0.379287   
C260     C      0.573470000000     0.827880000000     0.493290000000     0.379055   
C261     C      0.496660000000     0.827090000000     0.685510000000     0.377941   
C262     C      0.494390000000     0.828670000000     0.802520000000     0.378162   
C263     C      0.573620000000     0.828210000000     0.745010000000     0.379185   
C264     C      0.417460000000     0.827520000000     0.743080000000     0.379289   
C265     C      0.828520000000     0.494150000000     0.551230000000     0.377863   
C266     C      0.828520000000     0.495270000000     0.934220000000     0.37766    
C267     C      0.828540000000     0.572760000000     0.493210000000     0.379031   
C268     C      0.828520000000     0.416610000000     0.492220000000     0.37924    
C269     C      0.828480000000     0.494640000000     0.684220000000     0.378036   
C270     C      0.828490000000     0.495360000000     0.801240000000     0.377697   
C271     C      0.828240000000     0.416940000000     0.743040000000     0.379199   
C272     C      0.828700000000     0.573100000000     0.742530000000     0.379206   
C273     C      0.495760000000     0.162040000000     0.552860000000     0.377983   
C274     C      0.494790000000     0.162030000000     0.935840000000     0.377435   
C275     C      0.573360000000     0.161870000000     0.493940000000     0.37907    
C276     C      0.417210000000     0.162250000000     0.494810000000     0.379078   
C277     C      0.495480000000     0.162020000000     0.685830000000     0.378113   
C278     C      0.494920000000     0.162010000000     0.802840000000     0.377719   
C279     C      0.417110000000     0.161810000000     0.744120000000     0.379073   
C280     C      0.573270000000     0.162220000000     0.744500000000     0.379086   
C281     C      0.163750000000     0.494480000000     0.552630000000     0.378009   
C282     C      0.160920000000     0.495060000000     0.935620000000     0.377683   
C283     C      0.162300000000     0.416700000000     0.493980000000     0.379105   
C284     C      0.162390000000     0.572870000000     0.494210000000     0.379046   
C285     C      0.160930000000     0.495590000000     0.802630000000     0.37814    
C286     C      0.163760000000     0.493730000000     0.685630000000     0.378001   
C287     C      0.162030000000     0.416570000000     0.745030000000     0.379266   
C288     C      0.162680000000     0.572730000000     0.743290000000     0.379306   
C289     C      0.750180000000     0.827580000000     0.492640000000     0.37878    
C290     C      0.906490000000     0.827540000000     0.493120000000     0.378493   
C291     C      0.828320000000     0.749470000000     0.993310000000     0.373751   
C292     C      0.828210000000     0.905770000000     0.992530000000     0.373064   
C293     C      0.750330000000     0.828090000000     0.746120000000     0.378789   
C294     C      0.906640000000     0.827770000000     0.745180000000     0.378325   
C295     C      0.828360000000     0.749820000000     0.744470000000     0.378723   
C296     C      0.828460000000     0.906110000000     0.746800000000     0.378244   
C297     C      0.750080000000     0.161890000000     0.992550000000     0.373547   
C298     C      0.906390000000     0.161730000000     0.991490000000     0.373134   
C299     C      0.828290000000     0.239900000000     0.491660000000     0.378605   
C300     C      0.828050000000     0.083590000000     0.492210000000     0.378314   
C301     C      0.828090000000     0.240270000000     0.745110000000     0.378718   
C302     C      0.827990000000     0.083960000000     0.747080000000     0.378448   
C303     C      0.749960000000     0.162290000000     0.745390000000     0.379051   
C304     C      0.906270000000     0.162120000000     0.746860000000     0.378403   
C305     C      0.162310000000     0.240020000000     0.993730000000     0.373508   
C306     C      0.162630000000     0.083700000000     0.993410000000     0.373415   
C307     C      0.240520000000     0.162180000000     0.494530000000     0.378777   
C308     C      0.084220000000     0.161800000000     0.492450000000     0.37847    
C309     C      0.162100000000     0.239860000000     0.746290000000     0.378693   
C310     C      0.162470000000     0.083550000000     0.745320000000     0.378288   
C311     C      0.240390000000     0.161870000000     0.744970000000     0.378658   
C312     C      0.084100000000     0.161690000000     0.746680000000     0.378361   
C313     C      0.240620000000     0.827690000000     0.994400000000     0.37355    
C314     C      0.084310000000     0.827620000000     0.993440000000     0.373081   
C315     C      0.162520000000     0.749570000000     0.493840000000     0.378699   
C316     C      0.162570000000     0.905880000000     0.493850000000     0.378268   
C317     C      0.162790000000     0.749410000000     0.742720000000     0.378871   
C318     C      0.162720000000     0.905720000000     0.744070000000     0.378482   
C319     C      0.240790000000     0.827410000000     0.742710000000     0.378864   
C320     C      0.084470000000     0.827470000000     0.744050000000     0.378477   
C321     C      0.162710000000     0.016440000000     0.717070000000    -0.00262481 
C322     C      0.162580000000     0.038060000000     0.745010000000    -0.0892398  
C323     C      0.162540000000     0.015740000000     0.772650000000    -0.00265147 
C324     C      0.162610000000     0.972830000000     0.772360000000    -0.00261359 
C325     C      0.162710000000     0.951220000000     0.744420000000    -0.0892192  
C326     C      0.162760000000     0.973540000000     0.716780000000    -0.00266256 
C327     C      0.162760000000     0.016360000000     0.521330000000    -0.00255539 
C328     C      0.162690000000     0.038210000000     0.993470000000    -0.0935512  
C329     C      0.162620000000     0.016120000000     0.965750000000    -0.0024793  
C330     C      0.162570000000     0.973210000000     0.965890000000    -0.00242435 
C331     C      0.162630000000     0.951370000000     0.493750000000    -0.089246   
C332     C      0.162760000000     0.973460000000     0.521470000000    -0.00268684 
C333     C      0.973760000000     0.162650000000     0.774820000000    -0.00248809 
C334     C      0.951770000000     0.162020000000     0.747040000000    -0.0892189  
C335     C      0.973710000000     0.161260000000     0.719250000000    -0.00275309 
C336     C      0.016560000000     0.161130000000     0.719200000000    -0.00282688 
C337     C      0.038600000000     0.161760000000     0.746950000000    -0.0892026  
C338     C      0.016720000000     0.162530000000     0.774770000000    -0.00246038 
C339     C      0.973610000000     0.161200000000     0.519390000000    -0.00281378 
C340     C      0.951890000000     0.161730000000     0.491500000000    -0.0891635  
C341     C      0.974100000000     0.162270000000     0.963820000000    -0.0024322  
C342     C      0.017050000000     0.162270000000     0.964060000000    -0.00231672 
C343     C      0.038730000000     0.161750000000     0.491990000000    -0.0893301  
C344     C      0.016470000000     0.161220000000     0.519630000000    -0.00274015 
C345     C      0.973790000000     0.827620000000     0.716980000000    -0.00260611 
C346     C      0.952140000000     0.827660000000     0.744900000000    -0.0891918  
C347     C      0.974410000000     0.827600000000     0.772560000000    -0.00270431 
C348     C      0.017320000000     0.827510000000     0.772300000000    -0.00258305 
C349     C      0.038970000000     0.827500000000     0.744380000000    -0.0892254  
C350     C      0.016690000000     0.827550000000     0.716720000000    -0.00266604 
C351     C      0.827660000000     0.973470000000     0.775010000000    -0.00260321 
C352     C      0.828360000000     0.951610000000     0.747160000000    -0.0891169  
C353     C      0.828890000000     0.973690000000     0.719440000000    -0.00281799 
C354     C      0.828740000000     0.016530000000     0.719510000000    -0.00264052 
C355     C      0.828070000000     0.038460000000     0.747300000000    -0.0892585  
C356     C      0.827530000000     0.016440000000     0.775080000000    -0.00252894 
C357     C      0.974040000000     0.827430000000     0.965430000000    -0.00243898 
C358     C      0.951980000000     0.827530000000     0.493200000000    -0.0893428  
C359     C      0.973860000000     0.827640000000     0.521010000000    -0.00261393 
C360     C      0.016760000000     0.827680000000     0.521060000000    -0.00260226 
C361     C      0.038820000000     0.827570000000     0.993300000000    -0.0934289  
C362     C      0.016950000000     0.827420000000     0.965480000000    -0.00256611 
C363     C      0.827990000000     0.016040000000     0.964530000000    -0.00248028 
C364     C      0.828040000000     0.038100000000     0.492300000000    -0.0892318  
C365     C      0.828100000000     0.016220000000     0.520120000000    -0.00267726 
C366     C      0.828170000000     0.973320000000     0.520170000000    -0.00270017 
C367     C      0.828130000000     0.951260000000     0.492410000000    -0.0892095  
C368     C      0.828010000000     0.973130000000     0.964590000000    -0.00242846 
C369     C      0.189720000000     0.639730000000     0.762100000000    -0.00085993 
C370     C      0.162910000000     0.617890000000     0.742890000000    -0.0896182  
C371     C      0.136290000000     0.639520000000     0.723370000000    -0.00072407 
C372     C      0.136900000000     0.682450000000     0.722770000000    -0.000753491
C373     C      0.163090000000     0.704260000000     0.742480000000    -0.0896211  
C374     C      0.189290000000     0.682630000000     0.762300000000    -0.000731294
C375     C      0.188840000000     0.349930000000     0.764940000000    -0.00071508 
C376     C      0.161830000000     0.371410000000     0.745610000000    -0.08975    
C377     C      0.134660000000     0.349410000000     0.726790000000    -0.000760592
C378     C      0.135130000000     0.306510000000     0.726780000000    -0.000840252
C379     C      0.161730000000     0.285020000000     0.746390000000    -0.0895554  
C380     C      0.188280000000     0.307010000000     0.765730000000    -0.00133113 
C381     C      0.135490000000     0.639860000000     0.513240000000    -0.00078795 
C382     C      0.162410000000     0.618030000000     0.494090000000    -0.0897288  
C383     C      0.189300000000     0.639660000000     0.974800000000     0.000347182
C384     C      0.188790000000     0.682580000000     0.974270000000    -0.00177991 
C385     C      0.162410000000     0.704410000000     0.493830000000    -0.089616   
C386     C      0.136010000000     0.682770000000     0.513510000000    -0.000927487
C387     C      0.189010000000     0.349850000000     0.974540000000     0.000288484
C388     C      0.162300000000     0.371540000000     0.493940000000    -0.0894389  
C389     C      0.135620000000     0.349760000000     0.513310000000    -0.000843745
C390     C      0.136170000000     0.306840000000     0.513670000000    -0.000607157
C391     C      0.162340000000     0.285170000000     0.993860000000    -0.0933879  
C392     C      0.188510000000     0.306950000000     0.974100000000    -0.00117334 
C393     C      0.123310000000     0.495440000000     0.885190000000    -0.00263309 
C394     C      0.160500000000     0.495340000000     0.901590000000    -0.0892657  
C395     C      0.197630000000     0.495520000000     0.885140000000    -0.00321659 
C396     C      0.197630000000     0.495710000000     0.853110000000    -0.00303876 
C397     C      0.160510000000     0.495730000000     0.836650000000    -0.089474   
C398     C      0.123310000000     0.495630000000     0.853050000000    -0.00255401 
C399     C      0.201360000000     0.494030000000     0.603060000000    -0.00250943 
C400     C      0.164170000000     0.494160000000     0.586650000000    -0.0894214  
C401     C      0.127050000000     0.493940000000     0.603110000000    -0.00303539 
C402     C      0.127050000000     0.493680000000     0.635150000000    -0.00307901 
C403     C      0.164170000000     0.493640000000     0.651600000000    -0.0893096  
C404     C      0.201360000000     0.493770000000     0.635200000000    -0.00259319 
C405     C      0.350050000000     0.188450000000     0.724920000000    -0.000737943
C406     C      0.371940000000     0.161690000000     0.744160000000    -0.0897964  
C407     C      0.350360000000     0.134870000000     0.763530000000    -0.00084697 
C408     C      0.307460000000     0.135390000000     0.764120000000    -0.00108279 
C409     C      0.285560000000     0.161690000000     0.744540000000    -0.0895489  
C410     C      0.307120000000     0.187940000000     0.724710000000    -0.00140164 
C411     C      0.640350000000     0.135860000000     0.725180000000    -0.000842378
C412     C      0.618430000000     0.162340000000     0.744610000000    -0.0895186  
C413     C      0.639980000000     0.188920000000     0.764200000000    -0.00104729 
C414     C      0.682880000000     0.188430000000     0.764790000000    -0.00069553 
C415     C      0.704810000000     0.162420000000     0.745000000000    -0.0897788  
C416     C      0.683270000000     0.136430000000     0.724980000000    -0.000614838
C417     C      0.350350000000     0.188930000000     0.975440000000     7.64736e-05
C418     C      0.372040000000     0.162410000000     0.494980000000    -0.0894323  
C419     C      0.350270000000     0.136040000000     0.514600000000    -0.000916539
C420     C      0.307340000000     0.136630000000     0.514990000000    -0.000677404
C421     C      0.285670000000     0.162510000000     0.494970000000    -0.0896509  
C422     C      0.307450000000     0.188450000000     0.975040000000    -0.001158   
C423     C      0.683450000000     0.188030000000     0.512870000000    -0.00125537 
C424     C      0.704910000000     0.161860000000     0.492920000000    -0.0896841  
C425     C      0.682900000000     0.135650000000     0.973340000000    -0.00148681 
C426     C      0.640000000000     0.135100000000     0.974090000000     0.000166794
C427     C      0.618530000000     0.161800000000     0.493640000000    -0.0897079  
C428     C      0.640540000000     0.188520000000     0.512840000000    -0.000913595
C429     C      0.494700000000     0.199170000000     0.885380000000    -0.00293332 
C430     C      0.494680000000     0.162020000000     0.901820000000    -0.0894509  
C431     C      0.494660000000     0.124860000000     0.885390000000    -0.00280809 
C432     C      0.494750000000     0.124850000000     0.853300000000    -0.00295038 
C433     C      0.494780000000     0.162010000000     0.836870000000    -0.0892808  
C434     C      0.494710000000     0.199170000000     0.853290000000    -0.00305322 
C435     C      0.495800000000     0.199190000000     0.603300000000    -0.00272851 
C436     C      0.495840000000     0.162030000000     0.586870000000    -0.0895058  
C437     C      0.495840000000     0.124870000000     0.603290000000    -0.00276188 
C438     C      0.495710000000     0.124860000000     0.635380000000    -0.0028513  
C439     C      0.495650000000     0.162020000000     0.651810000000    -0.0894079  
C440     C      0.495730000000     0.199180000000     0.635390000000    -0.00273326 
C441     C      0.854540000000     0.349620000000     0.724150000000    -0.000875188
C442     C      0.828100000000     0.371780000000     0.743460000000    -0.0894904  
C443     C      0.801620000000     0.350480000000     0.763280000000    -0.00100046 
C444     C      0.802120000000     0.307590000000     0.764180000000    -0.00064557 
C445     C      0.828050000000     0.285410000000     0.744500000000    -0.089684   
C446     C      0.853980000000     0.306700000000     0.724270000000    -0.00062491 
C447     C      0.802010000000     0.640340000000     0.723690000000    -0.000916437
C448     C      0.828800000000     0.618280000000     0.742800000000    -0.0896255  
C449     C      0.855530000000     0.639690000000     0.762360000000    -0.000961627
C450     C      0.854900000000     0.682580000000     0.763240000000    -0.000969205
C451     C      0.828570000000     0.704660000000     0.743790000000    -0.0896883  
C452     C      0.802420000000     0.683270000000     0.723790000000    -0.00118672 
C453     C      0.855350000000     0.349560000000     0.511140000000    -0.000874197
C454     C      0.828540000000     0.371450000000     0.491940000000    -0.0897418  
C455     C      0.801780000000     0.349850000000     0.972500000000     0.000249263
C456     C      0.802290000000     0.306930000000     0.971930000000    -0.00168319 
C457     C      0.828520000000     0.285060000000     0.491570000000    -0.0896375  
C458     C      0.854810000000     0.306660000000     0.511350000000    -0.000859453
C459     C      0.801880000000     0.639600000000     0.012800000000     0.00509851 
C460     C      0.828580000000     0.617930000000     0.493380000000    -0.0896558  
C461     C      0.855300000000     0.639720000000     0.474060000000    -0.000895483
C462     C      0.854750000000     0.682620000000     0.473720000000    -0.00092936 
C463     C      0.828520000000     0.704310000000     0.493490000000    -0.0896717  
C464     C      0.802370000000     0.682530000000     0.013260000000     0.00291845 
C465     C      0.791380000000     0.496670000000     0.883780000000    -0.00287278 
C466     C      0.828520000000     0.495460000000     0.900200000000    -0.0894441  
C467     C      0.865650000000     0.494310000000     0.883760000000    -0.00273291 
C468     C      0.865650000000     0.494330000000     0.851680000000    -0.00286163 
C469     C      0.828500000000     0.495480000000     0.835260000000    -0.0893524  
C470     C      0.791370000000     0.496690000000     0.851690000000    -0.00296576 
C471     C      0.865640000000     0.495350000000     0.633770000000    -0.00287633 
C472     C      0.828490000000     0.494400000000     0.650200000000    -0.0895009  
C473     C      0.791350000000     0.493220000000     0.633770000000    -0.00280907 
C474     C      0.791370000000     0.493060000000     0.601680000000    -0.00285572 
C475     C      0.828520000000     0.494080000000     0.585260000000    -0.0893743  
C476     C      0.865650000000     0.495200000000     0.601690000000    -0.00292325 
C477     C      0.350500000000     0.800390000000     0.761900000000    -0.000994073
C478     C      0.372300000000     0.827280000000     0.742720000000    -0.08957    
C479     C      0.350630000000     0.854010000000     0.723310000000    -0.000804345
C480     C      0.307700000000     0.853410000000     0.722770000000    -0.000628783
C481     C      0.285930000000     0.827140000000     0.742440000000    -0.0897751  
C482     C      0.307610000000     0.800840000000     0.762160000000    -0.000637482
C483     C      0.640280000000     0.801260000000     0.764770000000    -0.000762973
C484     C      0.618780000000     0.828410000000     0.745570000000    -0.0897717  
C485     C      0.640760000000     0.855690000000     0.726820000000    -0.000776898
C486     C      0.683660000000     0.855200000000     0.726750000000    -0.000953907
C487     C      0.705170000000     0.828450000000     0.746250000000    -0.0896229  
C488     C      0.683200000000     0.801790000000     0.765500000000    -0.00126722 
C489     C      0.350420000000     0.854770000000     0.975440000000     0.000273403
C490     C      0.372160000000     0.828010000000     0.494770000000    -0.0898359  
C491     C      0.350420000000     0.801240000000     0.514100000000    -0.000862068
C492     C      0.307490000000     0.801710000000     0.514440000000    -0.00118393 
C493     C      0.285780000000     0.827890000000     0.994670000000    -0.0935276  
C494     C      0.307520000000     0.854200000000     0.974990000000    -0.00151444 
C495     C      0.640190000000     0.801220000000     0.973440000000     0.000255846
C496     C      0.618630000000     0.827890000000     0.492970000000    -0.0897453  
C497     C      0.640550000000     0.854570000000     0.512240000000    -0.000836596
C498     C      0.683450000000     0.854020000000     0.512430000000    -0.000988809
C499     C      0.705010000000     0.827820000000     0.492560000000    -0.0896369  
C500     C      0.683110000000     0.801710000000     0.972850000000    -0.00173339 
C501     C      0.493450000000     0.791650000000     0.885020000000    -0.00304142 
C502     C      0.494150000000     0.828750000000     0.901480000000    -0.0894014  
C503     C      0.494660000000     0.865950000000     0.885090000000    -0.00272208 
C504     C      0.494590000000     0.866020000000     0.852980000000    -0.00270434 
C505     C      0.494040000000     0.828870000000     0.836540000000    -0.0895056  
C506     C      0.493410000000     0.791710000000     0.852960000000    -0.00296573 
C507     C      0.496270000000     0.864160000000     0.603010000000    -0.00288501 
C508     C      0.496680000000     0.827060000000     0.586530000000    -0.0894505  
C509     C      0.497340000000     0.789860000000     0.602920000000    -0.00265355 
C510     C      0.497450000000     0.789780000000     0.635030000000    -0.00276725 
C511     C      0.496920000000     0.826910000000     0.651480000000    -0.0892661  
C512     C      0.496400000000     0.864090000000     0.635070000000    -0.00302922 
H1       H      0.162740000000     0.032610000000     0.195350000000     0.044895   
H2       H      0.162450000000     0.031380000000     0.294600000000     0.0446596  
H3       H      0.162570000000     0.956650000000     0.294080000000     0.0447739  
H4       H      0.162840000000     0.957910000000     0.194830000000     0.0447766  
H5       H      0.162840000000     0.032360000000     0.043130000000     0.044335   
H6       H      0.162550000000     0.031930000000     0.443870000000     0.0447233  
H7       H      0.162500000000     0.957200000000     0.444090000000     0.0446974  
H8       H      0.162810000000     0.957660000000     0.043350000000     0.0443961  
H9       H      0.957840000000     0.163240000000     0.296650000000     0.0449875  
H10      H      0.957820000000     0.160770000000     0.197410000000     0.0445752  
H11      H      0.032370000000     0.160550000000     0.197330000000     0.0445987  
H12      H      0.032720000000     0.163030000000     0.296570000000     0.0449754  
H13      H      0.957560000000     0.160790000000     0.041160000000     0.0441462  
H14      H      0.958350000000     0.162680000000     0.441920000000     0.044962   
H15      H      0.033220000000     0.162690000000     0.442330000000     0.0449989  
H16      H      0.032100000000     0.160820000000     0.041580000000     0.0440633  
H17      H      0.957640000000     0.827670000000     0.195240000000     0.044934   
H18      H      0.958750000000     0.827610000000     0.294490000000     0.0446319  
H19      H      0.033480000000     0.827470000000     0.294030000000     0.0448179  
H20      H      0.032340000000     0.827540000000     0.194780000000     0.0447366  
H21      H      0.827230000000     0.957430000000     0.296790000000     0.0448407  
H22      H      0.829410000000     0.957930000000     0.197550000000     0.0447535  
H23      H      0.829170000000     0.032420000000     0.197660000000     0.0447524  
H24      H      0.827000000000     0.032350000000     0.296910000000     0.0447553  
H25      H      0.958190000000     0.827320000000     0.443570000000     0.0446312  
H26      H      0.957890000000     0.827730000000     0.042820000000     0.044443   
H27      H      0.032590000000     0.827780000000     0.042930000000     0.0443093  
H28      H      0.032930000000     0.827340000000     0.443680000000     0.0447718  
H29      H      0.827920000000     0.031880000000     0.442670000000     0.0448385  
H30      H      0.828150000000     0.032190000000     0.041930000000     0.0442587  
H31      H      0.828240000000     0.957480000000     0.042030000000     0.0442041  
H32      H      0.827980000000     0.957160000000     0.442780000000     0.0449192  
H33      H      0.210410000000     0.623600000000     0.277410000000     0.0411469  
H34      H      0.115480000000     0.623210000000     0.208270000000     0.0414701  
H35      H      0.116330000000     0.698600000000     0.207400000000     0.0412806  
H36      H      0.209820000000     0.698920000000     0.277610000000     0.040289   
H37      H      0.209920000000     0.366360000000     0.279750000000     0.041333   
H38      H      0.113670000000     0.365400000000     0.211640000000     0.0413925  
H39      H      0.114310000000     0.290100000000     0.211750000000     0.0414594  
H40      H      0.209170000000     0.290990000000     0.280930000000     0.0414762  
H41      H      0.114590000000     0.623730000000     0.028370000000     0.0415001  
H42      H      0.210190000000     0.623370000000     0.459760000000     0.0412521  
H43      H      0.209510000000     0.698720000000     0.459010000000     0.0414981  
H44      H      0.115310000000     0.699060000000     0.028700000000     0.0416878  
H45      H      0.209730000000     0.366110000000     0.459340000000     0.0411728  
H46      H      0.114890000000     0.365940000000     0.028540000000     0.0411857  
H47      H      0.115640000000     0.290580000000     0.029000000000     0.0411913  
H48      H      0.209050000000     0.290760000000     0.458730000000     0.0403374  
H49      H      0.094150000000     0.495330000000     0.397140000000     0.0450693  
H50      H      0.226870000000     0.495470000000     0.396980000000     0.0444764  
H51      H      0.226880000000     0.495780000000     0.341280000000     0.0444612  
H52      H      0.094160000000     0.495630000000     0.341100000000     0.0450936  
H53      H      0.230520000000     0.494170000000     0.091100000000     0.0459281  
H54      H      0.097800000000     0.494010000000     0.091280000000     0.0450278  
H55      H      0.097800000000     0.493590000000     0.146980000000     0.0445198  
H56      H      0.230520000000     0.493760000000     0.147150000000     0.0453862  
H57      H      0.366150000000     0.209280000000     0.209710000000     0.0417483  
H58      H      0.366680000000     0.114090000000     0.278640000000     0.0416348  
H59      H      0.291380000000     0.114800000000     0.279510000000     0.0416708  
H60      H      0.290780000000     0.208580000000     0.209510000000     0.0420234  
H61      H      0.624280000000     0.115230000000     0.209800000000     0.0414998  
H62      H      0.623620000000     0.209480000000     0.279460000000     0.0412739  
H63      H      0.698950000000     0.208830000000     0.280330000000     0.0404641  
H64      H      0.699640000000     0.116010000000     0.209620000000     0.0413631  
H65      H      0.366580000000     0.209410000000     0.460050000000     0.0412649  
H66      H      0.366470000000     0.115480000000     0.029940000000     0.041584   
H67      H      0.291070000000     0.116260000000     0.030440000000     0.0414755  
H68      H      0.291270000000     0.208750000000     0.459490000000     0.0403548  
H69      H      0.699880000000     0.208590000000     0.028080000000     0.0420989  
H70      H      0.698900000000     0.115110000000     0.457860000000     0.0416772  
H71      H      0.623570000000     0.114370000000     0.459000000000     0.0416426  
H72      H      0.624540000000     0.209250000000     0.028170000000     0.0416605  
H73      H      0.494690000000     0.228370000000     0.397270000000     0.0446366  
H74      H      0.494670000000     0.095660000000     0.397290000000     0.0447859  
H75      H      0.494770000000     0.095650000000     0.341410000000     0.0448586  
H76      H      0.494750000000     0.228360000000     0.341390000000     0.0446826  
H77      H      0.495820000000     0.228390000000     0.091410000000     0.0456828  
H78      H      0.495850000000     0.095670000000     0.091390000000     0.0453023  
H79      H      0.495680000000     0.095660000000     0.147270000000     0.0447217  
H80      H      0.495680000000     0.228380000000     0.147290000000     0.0451439  
H81      H      0.875110000000     0.365490000000     0.208620000000     0.0413046  
H82      H      0.781110000000     0.367030000000     0.278450000000     0.0412877  
H83      H      0.781770000000     0.291710000000     0.279880000000     0.0404229  
H84      H      0.874330000000     0.290130000000     0.208980000000     0.0411668  
H85      H      0.781240000000     0.624380000000     0.208360000000     0.0415883  
H86      H      0.876310000000     0.623230000000     0.277380000000     0.0416464  
H87      H      0.875430000000     0.698520000000     0.278760000000     0.0415708  
H88      H      0.781760000000     0.699750000000     0.208680000000     0.0418023  
H89      H      0.876130000000     0.365650000000     0.026380000000     0.0413743  
H90      H      0.780980000000     0.366190000000     0.457410000000     0.041395   
H91      H      0.781640000000     0.290830000000     0.456590000000     0.041556   
H92      H      0.875390000000     0.290340000000     0.026620000000     0.0414806  
H93      H      0.781130000000     0.623340000000     0.527970000000     0.0414571  
H94      H      0.876040000000     0.623570000000     0.958820000000     0.0410065  
H95      H      0.875280000000     0.698870000000     0.958370000000     0.0413314  
H96      H      0.781780000000     0.698700000000     0.528590000000     0.0416866  
H97      H      0.762190000000     0.497580000000     0.395680000000     0.0447405  
H98      H      0.894840000000     0.493370000000     0.395650000000     0.0450034  
H99      H      0.894830000000     0.493390000000     0.339780000000     0.0450439  
H100     H      0.762180000000     0.497610000000     0.339800000000     0.0447786  
H101     H      0.894820000000     0.496250000000     0.145670000000     0.0446554  
H102     H      0.762160000000     0.492450000000     0.145660000000     0.0451048  
H103     H      0.762180000000     0.492200000000     0.089780000000     0.0455854  
H104     H      0.894840000000     0.496000000000     0.089800000000     0.0451733  
H105     H      0.366660000000     0.779620000000     0.277130000000     0.0411666  
H106     H      0.366910000000     0.874890000000     0.208250000000     0.0415768  
H107     H      0.291510000000     0.874060000000     0.207480000000     0.0413811  
H108     H      0.291340000000     0.780230000000     0.277440000000     0.0402329  
H109     H      0.623870000000     0.780080000000     0.279510000000     0.0414234  
H110     H      0.624750000000     0.876790000000     0.211760000000     0.0414349  
H111     H      0.700050000000     0.876110000000     0.211790000000     0.0414732  
H112     H      0.699230000000     0.780790000000     0.280610000000     0.0416136  
H113     H      0.366630000000     0.875560000000     0.460260000000     0.0415827  
H114     H      0.366630000000     0.780460000000     0.029260000000     0.0416384  
H115     H      0.291260000000     0.781060000000     0.029710000000     0.0420458  
H116     H      0.291320000000     0.874750000000     0.459640000000     0.041591   
H117     H      0.623830000000     0.780510000000     0.458300000000     0.0414555  
H118     H      0.624490000000     0.875280000000     0.027560000000     0.041548   
H119     H      0.699790000000     0.874500000000     0.027750000000     0.0416691  
H120     H      0.699190000000     0.781130000000     0.457440000000     0.041686   
H121     H      0.493030000000     0.762420000000     0.396870000000     0.0446822  
H122     H      0.495180000000     0.895120000000     0.397030000000     0.0448255  
H123     H      0.495090000000     0.895200000000     0.341070000000     0.0449813  
H124     H      0.492950000000     0.762500000000     0.341080000000     0.0445355  
H125     H      0.495790000000     0.893400000000     0.091170000000     0.0452921  
H126     H      0.497680000000     0.760700000000     0.090970000000     0.0456326  
H127     H      0.497860000000     0.760590000000     0.146930000000     0.0452687  
H128     H      0.495990000000     0.893290000000     0.146960000000     0.0446719  
H129     H      0.162740000000     0.032610000000     0.695350000000     0.0448173  
H130     H      0.162450000000     0.031380000000     0.794600000000     0.0446599  
H131     H      0.162570000000     0.956650000000     0.794080000000     0.0447856  
H132     H      0.162840000000     0.957910000000     0.694830000000     0.0446989  
H133     H      0.162840000000     0.032360000000     0.543130000000     0.0447064  
H134     H      0.162550000000     0.031930000000     0.943870000000     0.0445602  
H135     H      0.162500000000     0.957200000000     0.944090000000     0.0445292  
H136     H      0.162810000000     0.957660000000     0.543350000000     0.0447689  
H137     H      0.957840000000     0.163240000000     0.796650000000     0.0449804  
H138     H      0.957820000000     0.160770000000     0.697410000000     0.0445116  
H139     H      0.032370000000     0.160550000000     0.697330000000     0.0445331  
H140     H      0.032720000000     0.163030000000     0.796570000000     0.0449708  
H141     H      0.957560000000     0.160790000000     0.541160000000     0.0445512  
H142     H      0.958350000000     0.162680000000     0.941920000000     0.0447713  
H143     H      0.033220000000     0.162690000000     0.942340000000     0.0448379  
H144     H      0.032100000000     0.160820000000     0.541580000000     0.0444586  
H145     H      0.957640000000     0.827670000000     0.695240000000     0.0448432  
H146     H      0.958750000000     0.827610000000     0.794490000000     0.0446438  
H147     H      0.033480000000     0.827470000000     0.794030000000     0.0448212  
H148     H      0.032340000000     0.827540000000     0.694780000000     0.0446658  
H149     H      0.827230000000     0.957430000000     0.796790000000     0.0448387  
H150     H      0.829410000000     0.957930000000     0.697550000000     0.0446821  
H151     H      0.829170000000     0.032420000000     0.697660000000     0.0446774  
H152     H      0.827000000000     0.032350000000     0.796910000000     0.0447561  
H153     H      0.958190000000     0.827320000000     0.943570000000     0.0444672  
H154     H      0.957890000000     0.827730000000     0.542820000000     0.0448033  
H155     H      0.032590000000     0.827780000000     0.542930000000     0.0446752  
H156     H      0.032930000000     0.827340000000     0.943680000000     0.0446219  
H157     H      0.827920000000     0.031880000000     0.942670000000     0.0446796  
H158     H      0.828150000000     0.032190000000     0.541930000000     0.0446444  
H159     H      0.828240000000     0.957480000000     0.542030000000     0.0445616  
H160     H      0.827980000000     0.957160000000     0.942780000000     0.0447448  
H161     H      0.210410000000     0.623600000000     0.777410000000     0.0410813  
H162     H      0.115480000000     0.623210000000     0.708270000000     0.0413823  
H163     H      0.116330000000     0.698600000000     0.707400000000     0.0412151  
H164     H      0.209820000000     0.698920000000     0.777610000000     0.0402791  
H165     H      0.209920000000     0.366360000000     0.779750000000     0.0412881  
H166     H      0.113670000000     0.365400000000     0.711640000000     0.0413253  
H167     H      0.114310000000     0.290100000000     0.711750000000     0.0413814  
H168     H      0.209170000000     0.290990000000     0.780930000000     0.0414717  
H169     H      0.114590000000     0.623730000000     0.528370000000     0.0414704  
H170     H      0.210190000000     0.623370000000     0.959750000000     0.0406143  
H171     H      0.209510000000     0.698720000000     0.959010000000     0.0412452  
H172     H      0.115310000000     0.699060000000     0.528700000000     0.0415617  
H173     H      0.209730000000     0.366110000000     0.959330000000     0.0405376  
H174     H      0.114890000000     0.365940000000     0.528540000000     0.0412089  
H175     H      0.115640000000     0.290580000000     0.529000000000     0.0410629  
H176     H      0.209050000000     0.290760000000     0.958720000000     0.0402187  
H177     H      0.094150000000     0.495330000000     0.897140000000     0.0449245  
H178     H      0.226870000000     0.495470000000     0.896980000000     0.0443374  
H179     H      0.226880000000     0.495780000000     0.841280000000     0.0443752  
H180     H      0.094160000000     0.495630000000     0.841100000000     0.0450459  
H181     H      0.230520000000     0.494170000000     0.591100000000     0.0451763  
H182     H      0.097800000000     0.494010000000     0.591280000000     0.0444207  
H183     H      0.097800000000     0.493590000000     0.646980000000     0.0444259  
H184     H      0.230520000000     0.493760000000     0.647150000000     0.0451886  
H185     H      0.366150000000     0.209280000000     0.709700000000     0.0415901  
H186     H      0.366680000000     0.114090000000     0.778640000000     0.0416125  
H187     H      0.291380000000     0.114800000000     0.779510000000     0.0416731  
H188     H      0.290780000000     0.208580000000     0.709510000000     0.0419173  
H189     H      0.624280000000     0.115230000000     0.709800000000     0.041417   
H190     H      0.623620000000     0.209480000000     0.779450000000     0.0412582  
H191     H      0.698950000000     0.208830000000     0.780330000000     0.0404106  
H192     H      0.699640000000     0.116010000000     0.709620000000     0.0412689  
H193     H      0.366580000000     0.209410000000     0.960050000000     0.0406733  
H194     H      0.366470000000     0.115480000000     0.529940000000     0.0415587  
H195     H      0.291070000000     0.116260000000     0.530440000000     0.0413321  
H196     H      0.291270000000     0.208750000000     0.959490000000     0.0402148  
H197     H      0.699880000000     0.208590000000     0.528080000000     0.0418856  
H198     H      0.698900000000     0.115110000000     0.957850000000     0.041473   
H199     H      0.623570000000     0.114370000000     0.959000000000     0.0410493  
H200     H      0.624540000000     0.209250000000     0.528170000000     0.0416176  
H201     H      0.494690000000     0.228370000000     0.897270000000     0.044445   
H202     H      0.494670000000     0.095660000000     0.897290000000     0.0446589  
H203     H      0.494770000000     0.095650000000     0.841410000000     0.0448381  
H204     H      0.494750000000     0.228360000000     0.841390000000     0.0446038  
H205     H      0.495820000000     0.228390000000     0.591410000000     0.0449627  
H206     H      0.495850000000     0.095670000000     0.591390000000     0.0446402  
H207     H      0.495680000000     0.095660000000     0.647270000000     0.0446239  
H208     H      0.495680000000     0.228380000000     0.647290000000     0.0449744  
H209     H      0.875110000000     0.365490000000     0.708620000000     0.0412342  
H210     H      0.781110000000     0.367030000000     0.778450000000     0.0412517  
H211     H      0.781770000000     0.291710000000     0.779880000000     0.0403728  
H212     H      0.874330000000     0.290130000000     0.708980000000     0.0411009  
H213     H      0.781240000000     0.624380000000     0.708360000000     0.041469   
H214     H      0.876310000000     0.623230000000     0.777380000000     0.041635   
H215     H      0.875430000000     0.698520000000     0.778760000000     0.0415662  
H216     H      0.781760000000     0.699750000000     0.708680000000     0.0417012  
H217     H      0.876130000000     0.365650000000     0.526380000000     0.0413774  
H218     H      0.780980000000     0.366190000000     0.957420000000     0.0407786  
H219     H      0.781640000000     0.290830000000     0.956590000000     0.0412991  
H220     H      0.875390000000     0.290340000000     0.526620000000     0.0413697  
H221     H      0.781130000000     0.623340000000     0.027970000000     0.041477   
H222     H      0.876040000000     0.623570000000     0.458810000000     0.0415948  
H223     H      0.875280000000     0.698870000000     0.458370000000     0.0415444  
H224     H      0.781780000000     0.698700000000     0.028590000000     0.0418913  
H225     H      0.762190000000     0.497580000000     0.895680000000     0.0445533  
H226     H      0.894840000000     0.493370000000     0.895660000000     0.0448712  
H227     H      0.894830000000     0.493390000000     0.839780000000     0.0449929  
H228     H      0.762180000000     0.497610000000     0.839800000000     0.0446778  
H229     H      0.894820000000     0.496250000000     0.645670000000     0.0445427  
H230     H      0.762160000000     0.492450000000     0.645660000000     0.0449184  
H231     H      0.762180000000     0.492200000000     0.589780000000     0.0448934  
H232     H      0.894840000000     0.496000000000     0.589800000000     0.0445437  
H233     H      0.366660000000     0.779620000000     0.777120000000     0.0411374  
H234     H      0.366910000000     0.874890000000     0.708250000000     0.0414855  
H235     H      0.291510000000     0.874060000000     0.707480000000     0.0413005  
H236     H      0.291340000000     0.780230000000     0.777440000000     0.0402092  
H237     H      0.623870000000     0.780080000000     0.779510000000     0.0413796  
H238     H      0.624750000000     0.876790000000     0.711760000000     0.0413581  
H239     H      0.700050000000     0.876110000000     0.711790000000     0.0414082  
H240     H      0.699230000000     0.780790000000     0.780610000000     0.0415867  
H241     H      0.366630000000     0.875560000000     0.960260000000     0.0409858  
H242     H      0.366630000000     0.780460000000     0.529260000000     0.041599   
H243     H      0.291260000000     0.781060000000     0.529710000000     0.0418288  
H244     H      0.291320000000     0.874750000000     0.959640000000     0.0413979  
H245     H      0.623830000000     0.780510000000     0.958300000000     0.0408268  
H246     H      0.624490000000     0.875280000000     0.527560000000     0.0415163  
H247     H      0.699790000000     0.874500000000     0.527750000000     0.0415333  
H248     H      0.699190000000     0.781130000000     0.957440000000     0.0414386  
H249     H      0.493030000000     0.762420000000     0.896870000000     0.0444978  
H250     H      0.495180000000     0.895120000000     0.897030000000     0.044706   
H251     H      0.495090000000     0.895200000000     0.841070000000     0.0449554  
H252     H      0.492950000000     0.762500000000     0.841080000000     0.0444437  
H253     H      0.495790000000     0.893400000000     0.591170000000     0.0446363  
H254     H      0.497680000000     0.760700000000     0.590970000000     0.0449275  
H255     H      0.497860000000     0.760590000000     0.646930000000     0.0450883  
H256     H      0.495990000000     0.893290000000     0.646960000000     0.044561   
Ni1      Ni     0.495420000000     0.864560000000     0.994180000000     0.989931   
Ni2      Ni     0.495370000000     0.791260000000     0.493820000000     0.994554   
Ni3      Ni     0.495380000000     0.864530000000     0.243610000000     0.994676   
Ni4      Ni     0.495690000000     0.791210000000     0.244420000000     0.995334   
Ni5      Ni     0.865170000000     0.494680000000     0.992720000000     0.989823   
Ni6      Ni     0.791870000000     0.494700000000     0.492720000000     0.994768   
Ni7      Ni     0.865130000000     0.494910000000     0.242730000000     0.99429    
Ni8      Ni     0.791820000000     0.495130000000     0.242730000000     0.99505    
Ni9      Ni     0.495190000000     0.125390000000     0.994360000000     0.989159   
Ni10     Ni     0.495370000000     0.198700000000     0.494350000000     0.995482   
Ni11     Ni     0.495290000000     0.125360000000     0.244320000000     0.994358   
Ni12     Ni     0.495090000000     0.198660000000     0.244330000000     0.995142   
Ni13     Ni     0.125680000000     0.494800000000     0.994710000000     0.989812   
Ni14     Ni     0.198990000000     0.494760000000     0.493530000000     0.995361   
Ni15     Ni     0.125690000000     0.494800000000     0.243540000000     0.994586   
Ni16     Ni     0.199010000000     0.494510000000     0.244720000000     0.995752   
Ni17     Ni     0.828510000000     0.827190000000     0.465480000000     0.993946   
Ni18     Ni     0.828000000000     0.827890000000     0.020300000000     0.99829    
Ni19     Ni     0.828010000000     0.828680000000     0.218270000000     0.997205   
Ni20     Ni     0.828800000000     0.827100000000     0.273070000000     0.991228   
Ni21     Ni     0.828560000000     0.162090000000     0.019360000000     1.00018    
Ni22     Ni     0.827740000000     0.161550000000     0.464540000000     0.992005   
Ni23     Ni     0.828560000000     0.161510000000     0.218740000000     0.998799   
Ni24     Ni     0.827510000000     0.162870000000     0.273570000000     0.990715   
Ni25     Ni     0.161740000000     0.161730000000     0.020930000000     0.999277   
Ni26     Ni     0.163170000000     0.162150000000     0.466100000000     0.993454   
Ni27     Ni     0.162930000000     0.161380000000     0.273240000000     0.992095   
Ni28     Ni     0.161720000000     0.162190000000     0.218430000000     0.996765   
Ni29     Ni     0.162140000000     0.827530000000     0.021290000000     0.997918   
Ni30     Ni     0.162950000000     0.827760000000     0.466470000000     0.994331   
Ni31     Ni     0.162200000000     0.828000000000     0.215960000000     0.99409    
Ni32     Ni     0.163220000000     0.826970000000     0.270800000000     0.99547    
Ni33     Ni     0.495420000000     0.864560000000     0.494180000000     0.9947     
Ni34     Ni     0.495370000000     0.791260000000     0.993820000000     0.989723   
Ni35     Ni     0.495380000000     0.864530000000     0.743610000000     0.994665   
Ni36     Ni     0.495690000000     0.791210000000     0.744420000000     0.995433   
Ni37     Ni     0.865170000000     0.494680000000     0.492720000000     0.994659   
Ni38     Ni     0.791870000000     0.494700000000     0.992720000000     0.990161   
Ni39     Ni     0.865130000000     0.494910000000     0.742730000000     0.994515   
Ni40     Ni     0.791820000000     0.495130000000     0.742730000000     0.994901   
Ni41     Ni     0.495190000000     0.125390000000     0.494360000000     0.993967   
Ni42     Ni     0.495370000000     0.198700000000     0.994350000000     0.990875   
Ni43     Ni     0.495290000000     0.125360000000     0.744320000000     0.99439    
Ni44     Ni     0.495090000000     0.198660000000     0.744330000000     0.995032   
Ni45     Ni     0.125680000000     0.494800000000     0.494710000000     0.994508   
Ni46     Ni     0.198990000000     0.494760000000     0.993530000000     0.990602   
Ni47     Ni     0.125690000000     0.494800000000     0.743540000000     0.994614   
Ni48     Ni     0.199010000000     0.494510000000     0.744720000000     0.995646   
Ni49     Ni     0.828510000000     0.827190000000     0.965480000000     0.988104   
Ni50     Ni     0.828000000000     0.827890000000     0.520300000000     0.995057   
Ni51     Ni     0.828010000000     0.828680000000     0.718270000000     0.997103   
Ni52     Ni     0.828800000000     0.827100000000     0.773070000000     0.991385   
Ni53     Ni     0.828560000000     0.162090000000     0.519360000000     0.996914   
Ni54     Ni     0.827740000000     0.161550000000     0.964540000000     0.986055   
Ni55     Ni     0.828560000000     0.161510000000     0.718740000000     0.99874    
Ni56     Ni     0.827510000000     0.162870000000     0.773570000000     0.990834   
Ni57     Ni     0.161740000000     0.161730000000     0.520930000000     0.996076   
Ni58     Ni     0.163170000000     0.162150000000     0.966100000000     0.987496   
Ni59     Ni     0.162930000000     0.161380000000     0.773240000000     0.992213   
Ni60     Ni     0.161720000000     0.162190000000     0.718430000000     0.996631   
Ni61     Ni     0.162140000000     0.827530000000     0.521290000000     0.994703   
Ni62     Ni     0.162950000000     0.827760000000     0.966470000000     0.988436   
Ni63     Ni     0.162200000000     0.828000000000     0.715960000000     0.993793   
Ni64     Ni     0.163220000000     0.826970000000     0.770790000000     0.995506   
O1       O      0.494960000000     0.861600000000     0.038130000000    -0.431135   
O2       O      0.495870000000     0.862590000000     0.450200000000    -0.43479    
O3       O      0.436640000000     0.862180000000     0.993600000000    -0.434891   
O4       O      0.554190000000     0.862090000000     0.494720000000    -0.43408    
O5       O      0.554130000000     0.793660000000     0.992250000000    -0.434504   
O6       O      0.436600000000     0.793720000000     0.495400000000    -0.433739   
O7       O      0.493570000000     0.794220000000     0.449900000000    -0.435219   
O8       O      0.497170000000     0.793230000000     0.037790000000    -0.430455   
O9       O      0.496250000000     0.861470000000     0.199780000000    -0.43661    
O10      O      0.494520000000     0.862690000000     0.287690000000    -0.433686   
O11      O      0.554170000000     0.862370000000     0.244110000000    -0.433943   
O12      O      0.436600000000     0.861860000000     0.242740000000    -0.433779   
O13      O      0.436910000000     0.793370000000     0.243920000000    -0.434085   
O14      O      0.554460000000     0.793880000000     0.245330000000    -0.433917   
O15      O      0.494770000000     0.794290000000     0.288260000000    -0.436618   
O16      O      0.496580000000     0.793060000000     0.200330000000    -0.433358   
O17      O      0.862710000000     0.495400000000     0.036690000000    -0.43098    
O18      O      0.862710000000     0.493980000000     0.448760000000    -0.434941   
O19      O      0.862760000000     0.553450000000     0.991990000000    -0.434774   
O20      O      0.862730000000     0.435910000000     0.493440000000    -0.43409    
O21      O      0.794290000000     0.435930000000     0.991280000000    -0.4346     
O22      O      0.794310000000     0.553460000000     0.494160000000    -0.433863   
O23      O      0.794340000000     0.496300000000     0.448770000000    -0.435062   
O24      O      0.794340000000     0.493100000000     0.036670000000    -0.43087    
O25      O      0.862660000000     0.495810000000     0.198770000000    -0.435125   
O26      O      0.862670000000     0.494020000000     0.286690000000    -0.434918   
O27      O      0.862520000000     0.436130000000     0.241860000000    -0.433743   
O28      O      0.862860000000     0.553700000000     0.243640000000    -0.433909   
O29      O      0.794420000000     0.553900000000     0.241470000000    -0.433805   
O30      O      0.794080000000     0.436360000000     0.244030000000    -0.433866   
O31      O      0.794300000000     0.496550000000     0.286690000000    -0.434921   
O32      O      0.794290000000     0.493690000000     0.198780000000    -0.434853   
O33      O      0.496690000000     0.127850000000     0.038300000000    -0.430959   
O34      O      0.493700000000     0.127850000000     0.450400000000    -0.434824   
O35      O      0.553970000000     0.127680000000     0.993000000000    -0.434477   
O36      O      0.436420000000     0.127970000000     0.495730000000    -0.433667   
O37      O      0.436600000000     0.196420000000     0.993610000000    -0.434882   
O38      O      0.554140000000     0.196130000000     0.495100000000    -0.434072   
O39      O      0.496090000000     0.196220000000     0.450380000000    -0.434966   
O40      O      0.494640000000     0.196230000000     0.038310000000    -0.430854   
O41      O      0.494380000000     0.127820000000     0.200370000000    -0.435012   
O42      O      0.496190000000     0.127820000000     0.288290000000    -0.434744   
O43      O      0.436510000000     0.127640000000     0.245220000000    -0.433902   
O44      O      0.554060000000     0.127940000000     0.243410000000    -0.433791   
O45      O      0.553870000000     0.196390000000     0.245520000000    -0.433796   
O46      O      0.436330000000     0.196090000000     0.243130000000    -0.433833   
O47      O      0.493790000000     0.196190000000     0.288290000000    -0.434978   
O48      O      0.496410000000     0.196200000000     0.200380000000    -0.434881   
O49      O      0.129240000000     0.494610000000     0.038520000000    -0.432833   
O50      O      0.127030000000     0.494980000000     0.450600000000    -0.433351   
O51      O      0.128060000000     0.436010000000     0.994780000000    -0.435138   
O52      O      0.128130000000     0.553580000000     0.494990000000    -0.43386    
O53      O      0.196620000000     0.553550000000     0.993460000000    -0.434777   
O54      O      0.196550000000     0.435980000000     0.493230000000    -0.433973   
O55      O      0.195430000000     0.494950000000     0.449720000000    -0.436958   
O56      O      0.197640000000     0.494570000000     0.037640000000    -0.429039   
O57      O      0.127040000000     0.495550000000     0.287640000000    -0.433356   
O58      O      0.129250000000     0.494030000000     0.199740000000    -0.436888   
O59      O      0.127880000000     0.436000000000     0.243990000000    -0.433967   
O60      O      0.128350000000     0.553580000000     0.242750000000    -0.433798   
O61      O      0.196830000000     0.553290000000     0.244300000000    -0.434126   
O62      O      0.196360000000     0.435740000000     0.245520000000    -0.433932   
O63      O      0.197650000000     0.493780000000     0.200620000000    -0.433243   
O64      O      0.195440000000     0.495270000000     0.288530000000    -0.436921   
O65      O      0.769660000000     0.825800000000     0.467120000000    -0.433166   
O66      O      0.887210000000     0.828340000000     0.467490000000    -0.435623   
O67      O      0.829940000000     0.768500000000     0.467610000000    -0.434409   
O68      O      0.827360000000     0.886070000000     0.467040000000    -0.433907   
O69      O      0.829110000000     0.886560000000     0.018190000000    -0.431691   
O70      O      0.826620000000     0.769040000000     0.018790000000    -0.429044   
O71      O      0.886850000000     0.826760000000     0.018630000000    -0.430163   
O72      O      0.769300000000     0.829280000000     0.018290000000    -0.430341   
O73      O      0.769350000000     0.830170000000     0.220450000000    -0.435108   
O74      O      0.886850000000     0.827400000000     0.219730000000    -0.434678   
O75      O      0.826530000000     0.769840000000     0.219190000000    -0.433802   
O76      O      0.829250000000     0.887270000000     0.220980000000    -0.436627   
O77      O      0.827690000000     0.886050000000     0.272120000000    -0.433099   
O78      O      0.830150000000     0.768410000000     0.270340000000    -0.433732   
O79      O      0.887510000000     0.828220000000     0.270890000000    -0.434909   
O80      O      0.769910000000     0.825810000000     0.271580000000    -0.432493   
O81      O      0.769760000000     0.163570000000     0.017970000000    -0.429816   
O82      O      0.887170000000     0.160870000000     0.017140000000    -0.43265    
O83      O      0.830050000000     0.220790000000     0.017320000000    -0.430459   
O84      O      0.827330000000     0.103240000000     0.017720000000    -0.430352   
O85      O      0.828830000000     0.102850000000     0.466570000000    -0.435254   
O86      O      0.826420000000     0.220400000000     0.466150000000    -0.43293    
O87      O      0.886680000000     0.162620000000     0.466000000000    -0.432953   
O88      O      0.769000000000     0.160200000000     0.466800000000    -0.433769   
O89      O      0.828870000000     0.220350000000     0.219760000000    -0.434099   
O90      O      0.828480000000     0.102920000000     0.221310000000    -0.437221   
O91      O      0.769710000000     0.161320000000     0.219970000000    -0.433817   
O92      O      0.887200000000     0.161510000000     0.221130000000    -0.436759   
O93      O      0.886430000000     0.162780000000     0.272280000000    -0.433373   
O94      O      0.768790000000     0.163170000000     0.271200000000    -0.433765   
O95      O      0.827490000000     0.103910000000     0.272460000000    -0.432973   
O96      O      0.827300000000     0.221600000000     0.270990000000    -0.433299   
O97      O      0.161350000000     0.220560000000     0.019280000000    -0.429349   
O98      O      0.161950000000     0.103060000000     0.019000000000    -0.432153   
O99      O      0.220640000000     0.161620000000     0.019910000000    -0.428707   
O100     O      0.103080000000     0.161600000000     0.018270000000    -0.431922   
O101     O      0.104270000000     0.162040000000     0.467120000000    -0.433951   
O102     O      0.221830000000     0.162560000000     0.468670000000    -0.434529   
O103     O      0.163230000000     0.103250000000     0.467850000000    -0.433974   
O104     O      0.163310000000     0.220890000000     0.468060000000    -0.434056   
O105     O      0.164210000000     0.220280000000     0.271760000000    -0.432495   
O106     O      0.161850000000     0.102660000000     0.271030000000    -0.434982   
O107     O      0.221610000000     0.160060000000     0.270760000000    -0.434224   
O108     O      0.104020000000     0.162470000000     0.272060000000    -0.433469   
O109     O      0.103090000000     0.160920000000     0.220920000000    -0.43647    
O110     O      0.220570000000     0.163700000000     0.219600000000    -0.433451   
O111     O      0.163010000000     0.103360000000     0.219880000000    -0.434827   
O112     O      0.160190000000     0.220840000000     0.220610000000    -0.435013   
O113     O      0.220980000000     0.826120000000     0.019860000000    -0.428956   
O114     O      0.103480000000     0.828650000000     0.019110000000    -0.431701   
O115     O      0.160740000000     0.768800000000     0.019440000000    -0.429918   
O116     O      0.163300000000     0.886390000000     0.019430000000    -0.429935   
O117     O      0.161800000000     0.886450000000     0.468290000000    -0.435823   
O118     O      0.164340000000     0.768940000000     0.468270000000    -0.433459   
O119     O      0.104060000000     0.826620000000     0.467980000000    -0.434056   
O120     O      0.221650000000     0.829200000000     0.468680000000    -0.434456   
O121     O      0.161960000000     0.769100000000     0.217260000000    -0.43283    
O122     O      0.162240000000     0.886700000000     0.218320000000    -0.435572   
O123     O      0.221090000000     0.828240000000     0.217260000000    -0.432904   
O124     O      0.103500000000     0.827950000000     0.218310000000    -0.435584   
O125     O      0.104340000000     0.827000000000     0.269460000000    -0.434524   
O126     O      0.221900000000     0.826690000000     0.268490000000    -0.434699   
O127     O      0.163190000000     0.885840000000     0.269470000000    -0.43463    
O128     O      0.163500000000     0.768300000000     0.268490000000    -0.434832   
O129     O      0.494960000000     0.861600000000     0.538130000000    -0.435216   
O130     O      0.495870000000     0.862590000000     0.950200000000    -0.434038   
O131     O      0.436640000000     0.862180000000     0.493600000000    -0.43408    
O132     O      0.554190000000     0.862090000000     0.994720000000    -0.435368   
O133     O      0.554130000000     0.793660000000     0.492250000000    -0.433693   
O134     O      0.436600000000     0.793720000000     0.995400000000    -0.435034   
O135     O      0.493570000000     0.794220000000     0.949900000000    -0.43449    
O136     O      0.497170000000     0.793230000000     0.537790000000    -0.434557   
O137     O      0.496250000000     0.861470000000     0.699780000000    -0.43665    
O138     O      0.494520000000     0.862690000000     0.787690000000    -0.433651   
O139     O      0.554170000000     0.862370000000     0.744110000000    -0.433954   
O140     O      0.436600000000     0.861860000000     0.742740000000    -0.43379    
O141     O      0.436910000000     0.793370000000     0.743920000000    -0.434156   
O142     O      0.554460000000     0.793880000000     0.745330000000    -0.433986   
O143     O      0.494770000000     0.794290000000     0.788250000000    -0.436708   
O144     O      0.496580000000     0.793060000000     0.700330000000    -0.433462   
O145     O      0.862710000000     0.495400000000     0.536690000000    -0.435037   
O146     O      0.862710000000     0.493980000000     0.948760000000    -0.434173   
O147     O      0.862760000000     0.553450000000     0.491990000000    -0.433962   
O148     O      0.862730000000     0.435910000000     0.993440000000    -0.435395   
O149     O      0.794290000000     0.435930000000     0.491280000000    -0.433759   
O150     O      0.794310000000     0.553460000000     0.994150000000    -0.435192   
O151     O      0.794340000000     0.496300000000     0.948780000000    -0.434405   
O152     O      0.794340000000     0.493100000000     0.536670000000    -0.43491    
O153     O      0.862660000000     0.495810000000     0.698770000000    -0.435199   
O154     O      0.862670000000     0.494020000000     0.786680000000    -0.434896   
O155     O      0.862520000000     0.436130000000     0.741860000000    -0.433779   
O156     O      0.862860000000     0.553700000000     0.743640000000    -0.433954   
O157     O      0.794420000000     0.553900000000     0.741470000000    -0.433842   
O158     O      0.794080000000     0.436360000000     0.744030000000    -0.433908   
O159     O      0.794300000000     0.496550000000     0.786690000000    -0.434817   
O160     O      0.794290000000     0.493690000000     0.698780000000    -0.43492    
O161     O      0.496690000000     0.127850000000     0.538300000000    -0.435046   
O162     O      0.493700000000     0.127850000000     0.950400000000    -0.434056   
O163     O      0.553970000000     0.127680000000     0.493000000000    -0.433674   
O164     O      0.436420000000     0.127970000000     0.995730000000    -0.434943   
O165     O      0.436600000000     0.196420000000     0.493610000000    -0.434069   
O166     O      0.554140000000     0.196130000000     0.995100000000    -0.43539    
O167     O      0.496090000000     0.196220000000     0.950390000000    -0.434326   
O168     O      0.494640000000     0.196230000000     0.538310000000    -0.43493    
O169     O      0.494380000000     0.127820000000     0.700370000000    -0.435143   
O170     O      0.496190000000     0.127820000000     0.788290000000    -0.434743   
O171     O      0.436510000000     0.127640000000     0.745220000000    -0.433926   
O172     O      0.554060000000     0.127940000000     0.743410000000    -0.433804   
O173     O      0.553870000000     0.196390000000     0.745520000000    -0.433839   
O174     O      0.436330000000     0.196090000000     0.743120000000    -0.433869   
O175     O      0.493790000000     0.196190000000     0.788290000000    -0.435006   
O176     O      0.496410000000     0.196200000000     0.700380000000    -0.435029   
O177     O      0.129240000000     0.494610000000     0.538520000000    -0.436829   
O178     O      0.127030000000     0.494980000000     0.950610000000    -0.432681   
O179     O      0.128060000000     0.436010000000     0.494780000000    -0.433826   
O180     O      0.128130000000     0.553580000000     0.994990000000    -0.435145   
O181     O      0.196620000000     0.553550000000     0.493460000000    -0.433942   
O182     O      0.196550000000     0.435980000000     0.993230000000    -0.434789   
O183     O      0.195430000000     0.494950000000     0.949720000000    -0.436138   
O184     O      0.197640000000     0.494570000000     0.537640000000    -0.433192   
O185     O      0.127040000000     0.495550000000     0.787640000000    -0.433359   
O186     O      0.129250000000     0.494030000000     0.699740000000    -0.436923   
O187     O      0.127880000000     0.436000000000     0.743990000000    -0.433982   
O188     O      0.128350000000     0.553580000000     0.742750000000    -0.433817   
O189     O      0.196830000000     0.553290000000     0.744300000000    -0.434179   
O190     O      0.196360000000     0.435740000000     0.745520000000    -0.433981   
O191     O      0.197650000000     0.493780000000     0.700620000000    -0.433319   
O192     O      0.195440000000     0.495270000000     0.788530000000    -0.436938   
O193     O      0.769660000000     0.825800000000     0.967120000000    -0.431827   
O194     O      0.887210000000     0.828340000000     0.967490000000    -0.434261   
O195     O      0.829940000000     0.768500000000     0.967620000000    -0.433186   
O196     O      0.827360000000     0.886070000000     0.967040000000    -0.432597   
O197     O      0.829110000000     0.886560000000     0.518190000000    -0.435919   
O198     O      0.826620000000     0.769040000000     0.518790000000    -0.43336    
O199     O      0.886850000000     0.826760000000     0.518630000000    -0.434463   
O200     O      0.769300000000     0.829280000000     0.518290000000    -0.434656   
O201     O      0.769350000000     0.830170000000     0.720450000000    -0.435157   
O202     O      0.886850000000     0.827400000000     0.719730000000    -0.434772   
O203     O      0.826530000000     0.769840000000     0.719190000000    -0.433764   
O204     O      0.829250000000     0.887270000000     0.720980000000    -0.436648   
O205     O      0.827690000000     0.886050000000     0.772120000000    -0.433106   
O206     O      0.830150000000     0.768410000000     0.770340000000    -0.433839   
O207     O      0.887510000000     0.828220000000     0.770880000000    -0.435076   
O208     O      0.769910000000     0.825810000000     0.771580000000    -0.432509   
O209     O      0.769760000000     0.163570000000     0.517970000000    -0.43411    
O210     O      0.887170000000     0.160870000000     0.517140000000    -0.436869   
O211     O      0.830050000000     0.220790000000     0.517320000000    -0.434672   
O212     O      0.827330000000     0.103240000000     0.517720000000    -0.434646   
O213     O      0.828830000000     0.102850000000     0.966570000000    -0.433881   
O214     O      0.826420000000     0.220400000000     0.966150000000    -0.431495   
O215     O      0.886680000000     0.162620000000     0.966000000000    -0.431644   
O216     O      0.769000000000     0.160200000000     0.966800000000    -0.432278   
O217     O      0.828870000000     0.220350000000     0.719760000000    -0.434152   
O218     O      0.828480000000     0.102920000000     0.721310000000    -0.437155   
O219     O      0.769710000000     0.161320000000     0.719970000000    -0.434037   
O220     O      0.887200000000     0.161510000000     0.721130000000    -0.436787   
O221     O      0.886430000000     0.162780000000     0.772280000000    -0.433378   
O222     O      0.768790000000     0.163170000000     0.771190000000    -0.433851   
O223     O      0.827490000000     0.103910000000     0.772460000000    -0.433063   
O224     O      0.827300000000     0.221600000000     0.770990000000    -0.433316   
O225     O      0.161350000000     0.220560000000     0.519280000000    -0.433816   
O226     O      0.161950000000     0.103060000000     0.519000000000    -0.4363     
O227     O      0.220640000000     0.161620000000     0.519910000000    -0.433111   
O228     O      0.103080000000     0.161600000000     0.518270000000    -0.436151   
O229     O      0.104270000000     0.162040000000     0.967120000000    -0.432628   
O230     O      0.221830000000     0.162560000000     0.968670000000    -0.433122   
O231     O      0.163230000000     0.103250000000     0.967850000000    -0.432555   
O232     O      0.163310000000     0.220890000000     0.968050000000    -0.432486   
O233     O      0.164210000000     0.220280000000     0.771760000000    -0.432499   
O234     O      0.161850000000     0.102660000000     0.771030000000    -0.434982   
O235     O      0.221610000000     0.160060000000     0.770760000000    -0.434229   
O236     O      0.104020000000     0.162470000000     0.772060000000    -0.433559   
O237     O      0.103090000000     0.160920000000     0.720920000000    -0.436394   
O238     O      0.220570000000     0.163700000000     0.719600000000    -0.433501   
O239     O      0.163010000000     0.103360000000     0.719880000000    -0.434851   
O240     O      0.160190000000     0.220840000000     0.720610000000    -0.435062   
O241     O      0.220980000000     0.826120000000     0.519860000000    -0.433342   
O242     O      0.103480000000     0.828650000000     0.519110000000    -0.435998   
O243     O      0.160740000000     0.768800000000     0.519440000000    -0.434225   
O244     O      0.163300000000     0.886390000000     0.519440000000    -0.434069   
O245     O      0.161800000000     0.886450000000     0.968290000000    -0.434514   
O246     O      0.164340000000     0.768940000000     0.968270000000    -0.432112   
O247     O      0.104060000000     0.826620000000     0.967970000000    -0.432572   
O248     O      0.221650000000     0.829200000000     0.968680000000    -0.433051   
O249     O      0.161960000000     0.769100000000     0.717260000000    -0.432851   
O250     O      0.162240000000     0.886700000000     0.718320000000    -0.435476   
O251     O      0.221090000000     0.828240000000     0.717260000000    -0.432934   
O252     O      0.103500000000     0.827950000000     0.718310000000    -0.435579   
O253     O      0.104340000000     0.827000000000     0.769460000000    -0.434484   
O254     O      0.221900000000     0.826690000000     0.768490000000    -0.434668   
O255     O      0.163190000000     0.885840000000     0.769470000000    -0.434679   
O256     O      0.163500000000     0.768300000000     0.768490000000    -0.434801   


