data_structure

_audit_creation_method RASPA-1.0
_audit_creation_date 2023-5-22
_audit_author_name 'Poobodin Mano'

_cell_length_a    39.8927
_cell_length_b    40.5241
_cell_length_c    36.8898
_cell_angle_alpha 89.9295
_cell_angle_beta  90.0735
_cell_angle_gamma 119.837
_cell_volume      51731.4

_symmetry_cell_setting          triclinic
_symmetry_space_group_name_Hall 'P 1'
_symmetry_space_group_name_H-M  'P 1'
_symmetry_Int_Tables_number     1

_symmetry_equiv_pos_as_xyz 'x,y,z'

loop_
_atom_site_label
_atom_site_type_symbol
_atom_site_fract_x
_atom_site_fract_y
_atom_site_fract_z
_atom_site_charge
C1       C      0.748710000000     0.980040000000     0.425090000000     0.332502   
C2       C      0.765160000000     0.891250000000     0.511300000000     0.378797   
C3       C      0.710220000000     0.878960000000     0.429720000000     0.378163   
C4       C      0.803320000000     0.992090000000     0.506700000000     0.377635   
C5       C      0.703350000000     0.115830000000     0.515980000000     0.331547   
C6       C      0.610290000000     0.126000000000     0.428640000000     0.377661   
C7       C      0.600070000000     0.074910000000     0.511020000000     0.377745   
C8       C      0.713800000000     0.166440000000     0.433080000000     0.379108   
C9       C      0.020620000000     0.251960000000     0.913600000000     0.331178   
C10      C      0.111600000000     0.237710000000     0.000420000000     0.378078   
C11      C      0.008420000000     0.199120000000     0.995520000000     0.376926   
C12      C      0.123840000000     0.290330000000     0.918920000000     0.377372   
C13      C      0.926610000000     0.320320000000     0.007180000000     0.329704   
C14      C      0.896170000000     0.405270000000     0.928720000000     0.378027   
C15      C      0.865780000000     0.305560000000     0.929820000000     0.379023   
C16      C      0.956750000000     0.420210000000     0.006180000000     0.378147   
C17      C      0.221060000000     0.975710000000     0.688120000000     0.33178    
C18      C      0.212540000000     0.061800000000     0.592710000000     0.378721   
C19      C      0.172650000000     0.961060000000     0.602270000000     0.378409   
C20      C      0.261630000000     0.076980000000     0.678210000000     0.377749   
C21      C      0.364220000000     0.934640000000     0.594070000000     0.332489   
C22      C      0.455840000000     0.911610000000     0.671750000000     0.378619   
C23      C      0.352970000000     0.876310000000     0.671620000000     0.378252   
C24      C      0.466840000000     0.969840000000     0.594890000000     0.378177   
C25      C      0.400710000000     0.312450000000     0.755020000000     0.331112   
C26      C      0.426790000000     0.226820000000     0.836890000000     0.378213   
C27      C      0.366100000000     0.211610000000     0.759700000000     0.376994   
C28      C      0.461420000000     0.327330000000     0.832500000000     0.378076   
C29      C      0.361820000000     0.422010000000     0.837120000000     0.329929   
C30      C      0.275560000000     0.453800000000     0.760840000000     0.37929    
C31      C      0.260210000000     0.392290000000     0.836580000000     0.377602   
C32      C      0.376600000000     0.483780000000     0.761160000000     0.37864    
C33      C      0.696530000000     0.599880000000     0.250600000000     0.333331   
C34      C      0.786410000000     0.579350000000     0.333170000000     0.379591   
C35      C      0.683950000000     0.541560000000     0.329040000000     0.378347   
C36      C      0.799630000000     0.637700000000     0.255760000000     0.378049   
C37      C      0.564940000000     0.649820000000     0.346530000000     0.331515   
C38      C      0.553240000000     0.739350000000     0.257470000000     0.378362   
C39      C      0.514230000000     0.638130000000     0.262750000000     0.378465   
C40      C      0.604750000000     0.751090000000     0.341170000000     0.378118   
C41      C      0.096280000000     0.653790000000     0.087790000000     0.332492   
C42      C      0.108330000000     0.563430000000     0.175330000000     0.379103   
C43      C      0.057910000000     0.552390000000     0.092090000000     0.377751   
C44      C      0.146880000000     0.665040000000     0.171640000000     0.377404   
C45      C      0.040910000000     0.781910000000     0.188130000000     0.331968   
C46      C      0.954560000000     0.797820000000     0.096810000000     0.378886   
C47      C      0.938150000000     0.743780000000     0.178620000000     0.378491   
C48      C      0.056450000000     0.835310000000     0.105550000000     0.379198   
C49      C      0.578230000000     0.896540000000     0.081890000000     0.332345   
C50      C      0.471750000000     0.882200000000     0.167030000000     0.377939   
C51      C      0.514460000000     0.935660000000     0.086290000000     0.377432   
C52      C      0.535360000000     0.842830000000     0.163030000000     0.377424   
C53      C      0.779090000000     0.009580000000     0.176520000000     0.33315    
C54      C      0.884590000000     0.098200000000     0.089760000000     0.378366   
C55      C      0.841890000000     0.111190000000     0.170500000000     0.376386   
C56      C      0.822400000000     0.997320000000     0.095580000000     0.376695   
C57      C      0.935970000000     0.346050000000     0.241970000000     0.331369   
C58      C      0.834730000000     0.263100000000     0.334580000000     0.379187   
C59      C      0.899130000000     0.362970000000     0.325040000000     0.377621   
C60      C      0.871370000000     0.245370000000     0.251940000000     0.376471   
C61      C      0.077580000000     0.396280000000     0.345410000000     0.329318   
C62      C      0.188240000000     0.421260000000     0.260930000000     0.378502   
C63      C      0.120800000000     0.454890000000     0.266540000000     0.377945   
C64      C      0.146080000000     0.362810000000     0.339580000000     0.377551   
C65      C      0.243360000000     0.219070000000     0.412770000000     0.332773   
C66      C      0.136040000000     0.203800000000     0.497240000000     0.378029   
C67      C      0.179740000000     0.258540000000     0.417580000000     0.37669    
C68      C      0.199170000000     0.164160000000     0.493250000000     0.377615   
C69      C      0.455410000000     0.345090000000     0.506910000000     0.331471   
C70      C      0.562200000000     0.435430000000     0.422230000000     0.378351   
C71      C      0.521140000000     0.446200000000     0.505000000000     0.376806   
C72      C      0.496890000000     0.334570000000     0.424300000000     0.377943   
C73      C      0.616910000000     0.676580000000     0.592020000000     0.32901    
C74      C      0.503640000000     0.588220000000     0.671830000000     0.378314   
C75      C      0.570400000000     0.689030000000     0.669950000000     0.37789    
C76      C      0.549610000000     0.575730000000     0.593510000000     0.376758   
C77      C      0.756900000000     0.740840000000     0.688790000000     0.330033   
C78      C      0.855490000000     0.755380000000     0.593760000000     0.377916   
C79      C      0.790640000000     0.792030000000     0.604720000000     0.378133   
C80      C      0.821880000000     0.704030000000     0.677760000000     0.377712   
C81      C      0.922750000000     0.567830000000     0.764220000000     0.332358   
C82      C      0.803760000000     0.542860000000     0.836010000000     0.378503   
C83      C      0.854720000000     0.602050000000     0.760690000000     0.377162   
C84      C      0.871160000000     0.508060000000     0.839930000000     0.377544   
C85      C      0.103640000000     0.684520000000     0.831530000000     0.33294    
C86      C      0.221460000000     0.772630000000     0.756630000000     0.378975   
C87      C      0.172710000000     0.785010000000     0.832540000000     0.377373   
C88      C      0.153100000000     0.672480000000     0.755660000000     0.377746   
C89      C      0.411470000000     0.068790000000     0.004660000000     0.329786   
C90      C      0.525960000000     0.095980000000     0.924600000000     0.378449   
C91      C      0.455660000000     0.126990000000     0.926160000000     0.377784   
C92      C      0.482160000000     0.037940000000     0.002950000000     0.377792   
C93      C      0.263550000000     0.019030000000     0.905640000000     0.332795   
C94      C      0.170550000000     0.933420000000     0.002530000000     0.379744   
C95      C      0.230670000000     0.033750000000     0.992120000000     0.377924   
C96      C      0.203060000000     0.917810000000     0.916490000000     0.377264   
C97      C      0.660550000000     0.569030000000     0.994520000000     0.330879   
C98      C      0.568830000000     0.455670000000     0.917680000000     0.378595   
C99      C      0.671420000000     0.521140000000     0.917520000000     0.37816    
C100     C      0.558160000000     0.503220000000     0.995150000000     0.377359   
C101     C      0.808650000000     0.781710000000     0.912660000000     0.332714   
C102     C      0.813220000000     0.880120000000     0.000870000000     0.378208   
C103     C      0.855580000000     0.819750000000     0.997980000000     0.377395   
C104     C      0.766070000000     0.841860000000     0.915660000000     0.378042   
C105     C      0.665320000000     0.079420000000     0.753660000000     0.331125   
C106     C      0.758550000000     0.183310000000     0.838610000000     0.378383   
C107     C      0.768580000000     0.141410000000     0.756960000000     0.377436   
C108     C      0.655250000000     0.121420000000     0.835700000000     0.377987   
C109     C      0.629600000000     0.937330000000     0.828220000000     0.331438   
C110     C      0.597330000000     0.819830000000     0.753630000000     0.37789    
C111     C      0.661180000000     0.868090000000     0.827910000000     0.377556   
C112     C      0.565250000000     0.888870000000     0.754270000000     0.378221   
C113     C      0.002460000000     0.235790000000     0.666700000000     0.332086   
C114     C      0.910190000000     0.120570000000     0.592220000000     0.378176   
C115     C      0.012310000000     0.187630000000     0.589230000000     0.377881   
C116     C      0.900320000000     0.168310000000     0.669610000000     0.377591   
C117     C      0.116380000000     0.433400000000     0.594380000000     0.332839   
C118     C      0.135620000000     0.546240000000     0.670030000000     0.378221   
C119     C      0.173060000000     0.481570000000     0.672810000000     0.378627   
C120     C      0.079440000000     0.498390000000     0.591570000000     0.377892   
C121     C      0.942750000000     0.592850000000     0.504500000000     0.328334   
C122     C      0.922270000000     0.485540000000     0.419780000000     0.377543   
C123     C      0.976770000000     0.525710000000     0.501680000000     0.378646   
C124     C      0.888170000000     0.552560000000     0.423100000000     0.378877   
C125     C      0.993070000000     0.741520000000     0.410220000000     0.333      
C126     C      0.076590000000     0.841640000000     0.502870000000     0.378742   
C127     C      0.095000000000     0.806860000000     0.419660000000     0.376958   
C128     C      0.975260000000     0.776540000000     0.493720000000     0.377805   
C129     C      0.441820000000     0.092790000000     0.257530000000     0.333637   
C130     C      0.469040000000     0.207190000000     0.334830000000     0.378296   
C131     C      0.501900000000     0.139240000000     0.335030000000     0.377614   
C132     C      0.409240000000     0.161450000000     0.257400000000     0.376502   
C133     C      0.332490000000     0.911700000000     0.335170000000     0.332389   
C134     C      0.246440000000     0.795090000000     0.259310000000     0.378298   
C135     C      0.347290000000     0.865540000000     0.258520000000     0.377486   
C136     C      0.231330000000     0.840800000000     0.335900000000     0.376785   
C137     C      0.271640000000     0.259970000000     0.175310000000     0.328607   
C138     C      0.252850000000     0.153940000000     0.089660000000     0.377838   
C139     C      0.307010000000     0.193680000000     0.171710000000     0.376735   
C140     C      0.217290000000     0.219630000000     0.093480000000     0.377492   
C141     C      0.325760000000     0.411060000000     0.080950000000     0.332766   
C142     C      0.414460000000     0.515690000000     0.167630000000     0.378926   
C143     C      0.427870000000     0.477000000000     0.084470000000     0.37823    
C144     C      0.312810000000     0.449510000000     0.164250000000     0.379177   
C145     C      0.252430000000     0.320550000000     0.094560000000    -0.0349176  
C146     C      0.241860000000     0.325170000000     0.059570000000     0.0130927  
C147     C      0.209580000000     0.329570000000     0.054370000000    -0.0367973  
C148     C      0.187870000000     0.329390000000     0.084210000000    -0.0342284  
C149     C      0.198450000000     0.324770000000     0.119200000000     0.00634889 
C150     C      0.230710000000     0.320340000000     0.124390000000    -0.0345773  
C151     C      0.343190000000     0.151630000000     0.243520000000    -0.00471421 
C152     C      0.382830000000     0.169290000000     0.235430000000    -0.0919082  
C153     C      0.397270000000     0.195190000000     0.206400000000    -0.00392243 
C154     C      0.372700000000     0.203210000000     0.185920000000    -0.00428595 
C155     C      0.333040000000     0.185480000000     0.193890000000    -0.0892991  
C156     C      0.318560000000     0.159600000000     0.222960000000    -0.00375351 
C157     C      0.460110000000     0.045340000000     0.405710000000    -0.0343866  
C158     C      0.467980000000     0.049080000000     0.442890000000     0.00838065 
C159     C      0.497170000000     0.043130000000     0.456780000000    -0.0374766  
C160     C      0.518500000000     0.033380000000     0.433450000000    -0.0361127  
C161     C      0.510670000000     0.029680000000     0.396260000000     0.0133138  
C162     C      0.481500000000     0.035680000000     0.382370000000    -0.0361137  
C163     C      0.151850000000     0.798160000000     0.406620000000    -0.00305271 
C164     C      0.130110000000     0.815890000000     0.398450000000    -0.0887705  
C165     C      0.142260000000     0.842260000000     0.369800000000    -0.0027785  
C166     C      0.175200000000     0.850490000000     0.349650000000    -0.00301685 
C167     C      0.196850000000     0.832640000000     0.357740000000    -0.0886221  
C168     C      0.184850000000     0.806470000000     0.386550000000    -0.00317568 
C169     C      0.877160000000     0.667700000000     0.386770000000    -0.0364434  
C170     C      0.907830000000     0.660490000000     0.390330000000     0.0129469  
C171     C      0.918010000000     0.653370000000     0.424540000000    -0.0355312  
C172     C      0.897500000000     0.653450000000     0.455230000000    -0.0341705  
C173     C      0.866810000000     0.660640000000     0.451680000000     0.00647712 
C174     C      0.856630000000     0.667760000000     0.417470000000    -0.0334496  
C175     C      0.012950000000     0.486120000000     0.575730000000    -0.0049883  
C176     C      0.052770000000     0.504530000000     0.568310000000    -0.0927469  
C177     C      0.067210000000     0.529650000000     0.538720000000    -0.00382007 
C178     C      0.042500000000     0.536380000000     0.517130000000    -0.00372999 
C179     C      0.002710000000     0.518130000000     0.524550000000    -0.0909251  
C180     C      0.988170000000     0.492840000000     0.554060000000    -0.00286533 
C181     C      0.104580000000     0.286410000000     0.471560000000    -0.0374248  
C182     C      0.069130000000     0.280000000000     0.485160000000     0.00898491 
C183     C      0.064490000000     0.282760000000     0.522400000000    -0.0339272  
C184     C      0.095320000000     0.291920000000     0.546070000000    -0.0363468  
C185     C      0.130780000000     0.298370000000     0.532470000000     0.0139332  
C186     C      0.135440000000     0.295640000000     0.495240000000    -0.0363194  
C187     C      0.813830000000     0.173340000000     0.705040000000    -0.00308934 
C188     C      0.802240000000     0.148140000000     0.734630000000    -0.0899752  
C189     C      0.823410000000     0.129830000000     0.742840000000    -0.00333509 
C190     C      0.855390000000     0.136550000000     0.721910000000    -0.00303002 
C191     C      0.866900000000     0.161680000000     0.692270000000    -0.0894248  
C192     C      0.845750000000     0.180010000000     0.684100000000    -0.00326735 
C193     C      0.545130000000     0.007830000000     0.676520000000    -0.0343312  
C194     C      0.549350000000     0.007090000000     0.714100000000     0.013945   
C195     C      0.576500000000     0.998500000000     0.728630000000    -0.0369758  
C196     C      0.599530000000     0.990750000000     0.705550000000    -0.0360779  
C197     C      0.595260000000     0.991430000000     0.667970000000     0.00980955 
C198     C      0.568040000000     0.999920000000     0.653440000000    -0.0377926  
C199     C      0.753530000000     0.873900000000     0.863100000000    -0.00284904 
C200     C      0.739600000000     0.848450000000     0.892520000000    -0.0894551  
C201     C      0.699810000000     0.829360000000     0.900050000000    -0.00310882 
C202     C      0.674580000000     0.835770000000     0.878980000000    -0.00272428 
C203     C      0.688400000000     0.861320000000     0.849680000000    -0.0906101  
C204     C      0.728150000000     0.880190000000     0.841800000000    -0.00343612 
C205     C      0.771770000000     0.624310000000     0.805810000000    -0.0371112  
C206     C      0.734760000000     0.616070000000     0.816400000000     0.00802702 
C207     C      0.726500000000     0.617090000000     0.853070000000    -0.0336872  
C208     C      0.755280000000     0.626310000000     0.879190000000    -0.0362643  
C209     C      0.792300000000     0.634570000000     0.868610000000     0.0142978  
C210     C      0.800570000000     0.633610000000     0.831930000000    -0.0362817  
C211     C      0.513800000000     0.472140000000     0.047610000000    -0.00282083 
C212     C      0.525020000000     0.497200000000     0.017950000000    -0.0889258  
C213     C      0.504150000000     0.515980000000     0.010400000000    -0.00273317 
C214     C      0.472660000000     0.509670000000     0.032020000000    -0.00275098 
C215     C      0.461400000000     0.484420000000     0.061570000000    -0.0893451  
C216     C      0.482430000000     0.465830000000     0.069100000000    -0.00266284 
C217     C      0.273980000000     0.092990000000     0.026650000000    -0.000702504
C218     C      0.236600000000     0.065240000000     0.016110000000    -0.0898308  
C219     C      0.204630000000     0.066900000000     0.029780000000    -0.00115537 
C220     C      0.209900000000     0.095430000000     0.054220000000    -0.00213076 
C221     C      0.247270000000     0.123440000000     0.064450000000    -0.0891832  
C222     C      0.279300000000     0.122280000000     0.050150000000    -0.00203744 
C223     C      0.562650000000     0.071960000000     0.889450000000    -0.00144556 
C224     C      0.559150000000     0.102830000000     0.901910000000    -0.0898247  
C225     C      0.587430000000     0.139980000000     0.892430000000    -0.00159843 
C226     C      0.618430000000     0.146090000000     0.870230000000    -0.00151083 
C227     C      0.622230000000     0.115210000000     0.858310000000    -0.0899584  
C228     C      0.594280000000     0.078140000000     0.868330000000    -0.00147359 
C229     C      0.351830000000     0.093510000000     0.909170000000    -0.0350494  
C230     C      0.345480000000     0.106780000000     0.876320000000     0.0116163  
C231     C      0.335690000000     0.135450000000     0.876190000000    -0.0359407  
C232     C      0.332250000000     0.150870000000     0.908960000000    -0.0328271  
C233     C      0.338520000000     0.137540000000     0.941810000000     0.00600944 
C234     C      0.348300000000     0.108850000000     0.941940000000    -0.0327591  
C235     C      0.139150000000     0.605670000000     0.750200000000    -0.00154945 
C236     C      0.148150000000     0.640230000000     0.733510000000    -0.0909603  
C237     C      0.153370000000     0.643950000000     0.695810000000    -0.00145823 
C238     C      0.150160000000     0.613590000000     0.675130000000    -0.000646554
C239     C      0.140530000000     0.578790000000     0.691780000000    -0.0901378  
C240     C      0.134720000000     0.574970000000     0.729420000000    -0.00124958 
C241     C      0.207110000000     0.831630000000     0.882540000000    -0.00287451 
C242     C      0.179770000000     0.818580000000     0.854330000000    -0.0890378  
C243     C      0.159880000000     0.838340000000     0.846860000000    -0.00289795 
C244     C      0.167240000000     0.870460000000     0.867100000000    -0.00280636 
C245     C      0.194820000000     0.883630000000     0.895110000000    -0.0888915  
C246     C      0.214600000000     0.863780000000     0.902610000000    -0.00301278 
C247     C      0.734940000000     0.527800000000     0.838650000000    -0.000618673
C248     C      0.769470000000     0.536520000000     0.856580000000    -0.0903959  
C249     C      0.771490000000     0.540330000000     0.894430000000    -0.00126199 
C250     C      0.739320000000     0.534910000000     0.914140000000    -0.00149437 
C251     C      0.705020000000     0.526850000000     0.896240000000    -0.0912281  
C252     C      0.703050000000     0.523570000000     0.858340000000    -0.0013287  
C253     C      0.047100000000     0.588620000000     0.712180000000    -0.0363988  
C254     C      0.039230000000     0.552580000000     0.700720000000     0.0138493  
C255     C      0.042220000000     0.545870000000     0.664020000000    -0.0356614  
C256     C      0.053160000000     0.575230000000     0.638750000000    -0.0373144  
C257     C      0.060990000000     0.611260000000     0.650200000000     0.00908154 
C258     C      0.057940000000     0.617960000000     0.686890000000    -0.0342757  
C259     C      0.886760000000     0.728600000000     0.553850000000    -0.00173085 
C260     C      0.884380000000     0.760080000000     0.566390000000    -0.089122   
C261     C      0.910910000000     0.796560000000     0.553680000000    -0.00108344 
C262     C      0.939510000000     0.801580000000     0.528880000000    -0.00152224 
C263     C      0.942860000000     0.770340000000     0.517340000000    -0.0893916  
C264     C      0.916280000000     0.733790000000     0.530000000000    -0.000853464
C265     C      0.857630000000     0.692130000000     0.727520000000    -0.00365724 
C266     C      0.831090000000     0.678300000000     0.698640000000    -0.0901423  
C267     C      0.813250000000     0.639460000000     0.689850000000    -0.00444214 
C268     C      0.821500000000     0.614960000000     0.709600000000    -0.00413303 
C269     C      0.847680000000     0.628630000000     0.738750000000    -0.0924919  
C270     C      0.865780000000     0.667540000000     0.747400000000    -0.00476145 
C271     C      0.686650000000     0.810760000000     0.722500000000    -0.0349743  
C272     C      0.679970000000     0.773710000000     0.727050000000     0.0111262  
C273     C      0.675930000000     0.751320000000     0.696750000000    -0.0330393  
C274     C      0.678650000000     0.766010000000     0.661860000000    -0.034392   
C275     C      0.685330000000     0.803060000000     0.657300000000     0.00770536 
C276     C      0.689310000000     0.825430000000     0.687600000000    -0.0331137  
C277     C      0.581740000000     0.755160000000     0.674130000000    -0.000753207
C278     C      0.576520000000     0.722110000000     0.691530000000    -0.0899486  
C279     C      0.577330000000     0.721040000000     0.729550000000    -0.00144646 
C280     C      0.582880000000     0.752500000000     0.749880000000    -0.00145975 
C281     C      0.589010000000     0.785850000000     0.732410000000    -0.09057    
C282     C      0.588610000000     0.787030000000     0.694400000000    -0.000887786
C283     C      0.554910000000     0.490750000000     0.557010000000    -0.00325266 
C284     C      0.528520000000     0.479150000000     0.527990000000    -0.088976   
C285     C      0.509270000000     0.499570000000     0.520890000000    -0.00350239 
C286     C      0.516250000000     0.530830000000     0.542140000000    -0.0031583  
C287     C      0.542610000000     0.542500000000     0.571150000000    -0.0895417  
C288     C      0.561840000000     0.522060000000     0.578400000000    -0.00354471 
C289     C      0.492670000000     0.306040000000     0.363410000000    -0.00126494 
C290     C      0.489950000000     0.302230000000     0.401260000000    -0.0912114  
C291     C      0.480810000000     0.267280000000     0.417130000000    -0.00178391 
C292     C      0.473630000000     0.236240000000     0.395390000000    -0.00132407 
C293     C      0.476800000000     0.240090000000     0.357540000000    -0.0902389  
C294     C      0.486740000000     0.275310000000     0.341690000000    -0.000562849
C295     C      0.109930000000     0.204630000000     0.558550000000    -0.00198246 
C296     C      0.104610000000     0.200020000000     0.520890000000    -0.0903439  
C297     C      0.068910000000     0.191770000000     0.505840000000    -0.000861358
C298     C      0.039110000000     0.188590000000     0.528060000000    -0.00133703 
C299     C      0.044180000000     0.192440000000     0.565750000000    -0.0913684  
C300     C      0.079680000000     0.200220000000     0.580880000000    -0.00152715 
C301     C      0.377150000000     0.209750000000     0.333280000000    -0.0355811  
C302     C      0.377220000000     0.216370000000     0.370470000000     0.0141218  
C303     C      0.387730000000     0.252780000000     0.383070000000    -0.0360481  
C304     C      0.398130000000     0.282600000000     0.358440000000    -0.0343203  
C305     C      0.398140000000     0.276000000000     0.321240000000     0.00892624 
C306     C      0.387680000000     0.239600000000     0.308650000000    -0.0374605  
C307     C      0.253530000000     0.404940000000     0.198540000000    -0.000112461
C308     C      0.280450000000     0.442270000000     0.188240000000    -0.090588   
C309     C      0.276900000000     0.472700000000     0.201900000000    -0.000539027
C310     C      0.247250000000     0.465930000000     0.226170000000    -0.00198919 
C311     C      0.220030000000     0.428550000000     0.236100000000    -0.0895091  
C312     C      0.223110000000     0.398080000000     0.221790000000    -0.00187417 
C313     C      0.182350000000     0.349430000000     0.387680000000    -0.00383582 
C314     C      0.154750000000     0.336250000000     0.359690000000    -0.0900177  
C315     C      0.135960000000     0.297430000000     0.350570000000    -0.00442472 
C316     C      0.144470000000     0.272390000000     0.369050000000    -0.00409666 
C317     C      0.171990000000     0.285510000000     0.397100000000    -0.0922963  
C318     C      0.190900000000     0.324360000000     0.406150000000    -0.00491744 
C319     C      0.016940000000     0.438680000000     0.276830000000    -0.0334349  
C320     C      0.010790000000     0.469370000000     0.282510000000     0.00611531 
C321     C      0.006800000000     0.488730000000     0.252910000000    -0.0343543  
C322     C      0.008910000000     0.477380000000     0.217580000000    -0.0355943  
C323     C      0.015080000000     0.446710000000     0.211900000000     0.0123924  
C324     C      0.019150000000     0.427400000000     0.241500000000    -0.0356836  
C325     C      0.873610000000     0.398410000000     0.359960000000    -0.00121097 
C326     C      0.905300000000     0.395190000000     0.348090000000    -0.0897733  
C327     C      0.942620000000     0.422030000000     0.359690000000    -0.000761576
C328     C      0.948200000000     0.451930000000     0.382450000000    -0.00207756 
C329     C      0.916420000000     0.454580000000     0.395050000000    -0.0890093  
C330     C      0.879070000000     0.427520000000     0.383760000000    -0.00209623 
C331     C      0.876330000000     0.159070000000     0.219630000000    -0.00309467 
C332     C      0.848740000000     0.145130000000     0.191650000000    -0.0886639  
C333     C      0.828340000000     0.164320000000     0.183790000000    -0.00322813 
C334     C      0.835530000000     0.196790000000     0.203360000000    -0.00326821 
C335     C      0.863310000000     0.210820000000     0.231200000000    -0.0885186  
C336     C      0.883530000000     0.191480000000     0.239130000000    -0.00329283 
C337     C      0.852620000000     0.964340000000     0.064070000000    -0.00172017 
C338     C      0.819310000000     0.966340000000     0.072330000000    -0.0890751  
C339     C      0.783670000000     0.939190000000     0.057530000000    -0.00240113 
C340     C      0.781350000000     0.910220000000     0.035160000000    -0.00156643 
C341     C      0.814900000000     0.908940000000     0.026210000000    -0.0893123  
C342     C      0.850530000000     0.936280000000     0.040710000000    -0.000919827
C343     C      0.405630000000     0.872890000000     0.175300000000    -0.00104735 
C344     C      0.440460000000     0.878900000000     0.190630000000    -0.0894489  
C345     C      0.444900000000     0.881410000000     0.228450000000    -0.00170718 
C346     C      0.414470000000     0.876880000000     0.250660000000    -0.00160311 
C347     C      0.379730000000     0.871160000000     0.235280000000    -0.0891576  
C348     C      0.375740000000     0.869670000000     0.197420000000    -0.00173018 
C349     C      0.480620000000     0.948530000000     0.035680000000    -0.00302662 
C350     C      0.506890000000     0.962180000000     0.064760000000    -0.0892271  
C351     C      0.525050000000     0.001110000000     0.073390000000    -0.00273487 
C352     C      0.517000000000     0.025760000000     0.053450000000    -0.00272266 
C353     C      0.490620000000     0.012010000000     0.024440000000    -0.0891325  
C354     C      0.472610000000     0.973120000000     0.015780000000    -0.00264887 
C355     C      0.685520000000     0.911610000000     0.165620000000    -0.0372077  
C356     C      0.669910000000     0.933220000000     0.179340000000     0.00838137 
C357     C      0.667420000000     0.959990000000     0.157280000000    -0.0278442  
C358     C      0.680510000000     0.965140000000     0.121430000000    -0.0283745  
C359     C      0.696090000000     0.943510000000     0.107700000000     0.0135654  
C360     C      0.698630000000     0.916770000000     0.129780000000    -0.037059   
C361     C      0.896450000000     0.771640000000     0.056720000000    -0.000708564
C362     C      0.929910000000     0.803080000000     0.070460000000    -0.0899799  
C363     C      0.939190000000     0.839890000000     0.059640000000    -0.000520363
C364     C      0.915470000000     0.845210000000     0.035270000000    -0.00159673 
C365     C      0.881430000000     0.813880000000     0.022310000000    -0.0889062  
C366     C      0.872000000000     0.777050000000     0.033290000000    -0.00140498 
C367     C      0.089340000000     0.895580000000     0.070420000000    -0.0010504  
C368     C      0.087950000000     0.861850000000     0.081760000000    -0.0905605  
C369     C      0.115120000000     0.852600000000     0.068140000000    -0.000289157
C370     C      0.143160000000     0.876710000000     0.043310000000    -0.00130233 
C371     C      0.143430000000     0.909580000000     0.030880000000    -0.0899483  
C372     C      0.116490000000     0.918950000000     0.044740000000    -0.000559765
C373     C      0.109340000000     0.538110000000     0.236860000000    -0.000837605
C374     C      0.110580000000     0.535440000000     0.199020000000    -0.0915168  
C375     C      0.114250000000     0.505760000000     0.183620000000    -0.000762515
C376     C      0.116420000000     0.478920000000     0.205720000000    -0.00214854 
C377     C      0.116230000000     0.482080000000     0.243570000000    -0.0907799  
C378     C      0.112900000000     0.511980000000     0.259040000000    -0.000764712
C379     C      0.024110000000     0.678920000000     0.147160000000    -0.028609   
C380     C      0.062760000000     0.702910000000     0.156730000000     0.0200381  
C381     C      0.088160000000     0.730190000000     0.132160000000    -0.0341481  
C382     C      0.074880000000     0.733490000000     0.097970000000    -0.0293884  
C383     C      0.036220000000     0.709520000000     0.088400000000     0.00179729 
C384     C      0.010830000000     0.682240000000     0.112970000000    -0.0365224  
C385     C      0.160310000000     0.723510000000     0.205620000000    -0.002561   
C386     C      0.172410000000     0.697990000000     0.194420000000    -0.0899364  
C387     C      0.208950000000     0.704320000000     0.205130000000    -0.00191631 
C388     C      0.232810000000     0.735480000000     0.227070000000    -0.00159201 
C389     C      0.220980000000     0.761430000000     0.237470000000    -0.0899871  
C390     C      0.184680000000     0.755340000000     0.226400000000    -0.00149757 
C391     C      0.512320000000     0.756740000000     0.220120000000    -0.000616888
C392     C      0.549190000000     0.765070000000     0.231890000000    -0.0899266  
C393     C      0.581730000000     0.798710000000     0.220130000000    -0.00128545 
C394     C      0.577280000000     0.824240000000     0.197810000000    -0.00213904 
C395     C      0.540370000000     0.815800000000     0.185960000000    -0.0889562  
C396     C      0.508000000000     0.781590000000     0.196840000000    -0.00203694 
C397     C      0.453070000000     0.602380000000     0.227650000000    -0.0013074  
C398     C      0.488210000000     0.606020000000     0.239440000000    -0.0899881  
C399     C      0.498650000000     0.579270000000     0.228120000000    -0.00113717 
C400     C      0.474110000000     0.549120000000     0.205520000000    -0.00129387 
C401     C      0.439480000000     0.546130000000     0.192930000000    -0.0897287  
C402     C      0.429200000000     0.573020000000     0.204080000000    -0.00093116 
C403     C      0.807430000000     0.569930000000     0.394060000000    -0.000686252
C404     C      0.812860000000     0.573490000000     0.356410000000    -0.0923829  
C405     C      0.843330000000     0.570540000000     0.340830000000    -0.000880384
C406     C      0.868350000000     0.564470000000     0.362680000000    -0.00192884 
C407     C      0.862440000000     0.560010000000     0.400260000000    -0.0913415  
C408     C      0.831690000000     0.562580000000     0.415810000000    -0.000627438
C409     C      0.882530000000     0.678220000000     0.188880000000    -0.00312649 
C410     C      0.902750000000     0.716900000000     0.198560000000    -0.0900472  
C411     C      0.888470000000     0.729470000000     0.226990000000    -0.00287819 
C412     C      0.854810000000     0.703870000000     0.245420000000    -0.00307971 
C413     C      0.834660000000     0.665180000000     0.235720000000    -0.0905206  
C414     C      0.848890000000     0.652710000000     0.207190000000    -0.00322765 
C415     C      0.662820000000     0.673540000000     0.273610000000    -0.0364213  
C416     C      0.668170000000     0.664030000000     0.308760000000     0.0180646  
C417     C      0.644580000000     0.627100000000     0.321840000000    -0.0265484  
C418     C      0.615600000000     0.599660000000     0.299740000000    -0.0333168  
C419     C      0.610230000000     0.609180000000     0.264600000000     0.0139481  
C420     C      0.633820000000     0.646100000000     0.251520000000    -0.0383273  
C421     C      0.624770000000     0.522520000000     0.365950000000    -0.00116521 
C422     C      0.652040000000     0.513750000000     0.351790000000    -0.0910918  
C423     C      0.649480000000     0.478870000000     0.360750000000    -0.00132794 
C424     C      0.620550000000     0.453510000000     0.384200000000    -0.0018897  
C425     C      0.593030000000     0.462140000000     0.397960000000    -0.0898584  
C426     C      0.595050000000     0.496600000000     0.388310000000    -0.00224183 
C427     C      0.229120000000     0.470990000000     0.679370000000    -0.0011932  
C428     C      0.200090000000     0.475900000000     0.695570000000    -0.089386   
C429     C      0.196670000000     0.474580000000     0.733490000000    -0.000964504
C430     C      0.222140000000     0.468630000000     0.754930000000    -0.000600467
C431     C      0.250400000000     0.462590000000     0.738620000000    -0.09       
C432     C      0.253660000000     0.463710000000     0.700710000000    -0.000296275
C433     C      0.406150000000     0.507910000000     0.700470000000    -0.00274024 
C434     C      0.409110000000     0.510610000000     0.738410000000    -0.0897513  
C435     C      0.443170000000     0.539270000000     0.754340000000    -0.00161197 
C436     C      0.474140000000     0.564390000000     0.732610000000    -0.00212842 
C437     C      0.470930000000     0.562040000000     0.694680000000    -0.0919087  
C438     C      0.436620000000     0.533850000000     0.678750000000    -0.00251868 
C439     C      0.434800000000     0.204690000000     0.897840000000    -0.00106315 
C440     C      0.434050000000     0.201390000000     0.859940000000    -0.0910744  
C441     C      0.440540000000     0.173630000000     0.843990000000    -0.00133682 
C442     C      0.447060000000     0.149090000000     0.865640000000    -0.00196132 
C443     C      0.448480000000     0.152760000000     0.903500000000    -0.0907951  
C444     C      0.442650000000     0.180960000000     0.919470000000    -0.000996539
C445     C      0.467200000000     0.449730000000     0.790990000000    -0.0376275  
C446     C      0.487880000000     0.478790000000     0.765920000000     0.0112589  
C447     C      0.474890000000     0.475010000000     0.730130000000    -0.0368387  
C448     C      0.441080000000     0.442220000000     0.719440000000    -0.0343654  
C449     C      0.420430000000     0.413130000000     0.744490000000     0.0168855  
C450     C      0.433530000000     0.416820000000     0.780230000000    -0.0358738  
C451     C      0.479770000000     0.387940000000     0.864870000000    -0.00175343 
C452     C      0.489070000000     0.360290000000     0.853990000000    -0.0903091  
C453     C      0.524780000000     0.364150000000     0.864120000000    -0.00112309 
C454     C      0.550560000000     0.394890000000     0.885480000000    -0.00164349 
C455     C      0.541530000000     0.422870000000     0.895820000000    -0.089883   
C456     C      0.506140000000     0.419400000000     0.885060000000    -0.00253183 
C457     C      0.510380000000     0.901800000000     0.751010000000    -0.00143162 
C458     C      0.537370000000     0.894860000000     0.733240000000    -0.0910585  
C459     C      0.537460000000     0.893580000000     0.695250000000    -0.00129637 
C460     C      0.510460000000     0.898480000000     0.675320000000    -0.000805614
C461     C      0.483780000000     0.905920000000     0.693040000000    -0.0900784  
C462     C      0.484180000000     0.907950000000     0.731010000000    -0.00155137 
C463     C      0.312860000000     0.812780000000     0.700970000000    -0.00175218 
C464     C      0.319590000000     0.849610000000     0.693600000000    -0.0900231  
C465     C      0.294120000000     0.860940000000     0.707450000000    -0.00242578 
C466     C      0.261890000000     0.835590000000     0.727600000000    -0.00107438 
C467     C      0.255450000000     0.799010000000     0.735380000000    -0.090495   
C468     C      0.281330000000     0.787850000000     0.722330000000    -0.000961051
C469     C      0.173350000000     0.078400000000     0.551900000000    -0.000419173
C470     C      0.209660000000     0.086760000000     0.565380000000    -0.0899871  
C471     C      0.242810000000     0.119910000000     0.553750000000    -0.000910163
C472     C      0.239480000000     0.145120000000     0.530040000000    -0.00170177 
C473     C      0.203110000000     0.136800000000     0.516660000000    -0.0889777  
C474     C      0.170170000000     0.102910000000     0.527250000000    -0.00200623 
C475     C      0.328840000000     0.994260000000     0.650940000000    -0.0276096  
C476     C      0.306580000000     0.956320000000     0.661890000000     0.0189341  
C477     C      0.279850000000     0.929220000000     0.637980000000    -0.035845   
C478     C      0.275380000000     0.940060000000     0.603090000000    -0.0300137  
C479     C      0.297620000000     0.978000000000     0.592150000000     0.00160735 
C480     C      0.324340000000     0.005100000000     0.616050000000    -0.0382144  
C481     C      0.090010000000     0.897920000000     0.540390000000    -0.00102738 
C482     C      0.100230000000     0.870840000000     0.529780000000    -0.0896138  
C483     C      0.133650000000     0.872640000000     0.544260000000    -0.00175221 
C484     C      0.157270000000     0.901980000000     0.568050000000    -0.000573827
C485     C      0.147040000000     0.929090000000     0.578620000000    -0.0901476  
C486     C      0.112910000000     0.926470000000     0.565070000000    -0.0012789  
C487     C      0.352780000000     0.164010000000     0.710700000000    -0.00337684 
C488     C      0.338970000000     0.177250000000     0.738970000000    -0.0901423  
C489     C      0.299310000000     0.157090000000     0.747280000000    -0.00352583 
C490     C      0.274050000000     0.124520000000     0.727600000000    -0.00301128 
C491     C      0.287990000000     0.111310000000     0.699380000000    -0.0896737  
C492     C      0.327660000000     0.131450000000     0.691240000000    -0.00322056 
C493     C      0.889020000000     0.428470000000     0.868170000000    -0.000683612
C494     C      0.888050000000     0.430440000000     0.906120000000    -0.089393   
C495     C      0.880620000000     0.457520000000     0.922230000000    -0.00104267 
C496     C      0.875380000000     0.483030000000     0.900660000000    -0.00121968 
C497     C      0.876150000000     0.480910000000     0.862700000000    -0.0887966  
C498     C      0.882430000000     0.453070000000     0.846610000000    -0.00164657 
C499     C      0.842890000000     0.276590000000     0.868940000000    -0.00147188 
C500     C      0.839080000000     0.273570000000     0.906780000000    -0.0899285  
C501     C      0.809040000000     0.240250000000     0.922220000000    -0.000767908
C502     C      0.783330000000     0.210260000000     0.900060000000    -0.00244152 
C503     C      0.786550000000     0.213810000000     0.862210000000    -0.091456   
C504     C      0.816430000000     0.247190000000     0.846810000000    -0.0021265  
C505     C      0.968220000000     0.465010000000     0.057540000000    -0.00326768 
C506     C      0.982790000000     0.454030000000     0.028080000000    -0.0893267  
C507     C      0.022310000000     0.475850000000     0.019700000000    -0.00292594 
C508     C      0.046690000000     0.507860000000     0.040370000000    -0.00272652 
C509     C      0.032080000000     0.518820000000     0.069820000000    -0.0905585  
C510     C      0.992550000000     0.497030000000     0.078130000000    -0.00278686 
C511     C      0.170400000000     0.232230000000     0.009680000000    -0.000907321
C512     C      0.139130000000     0.234320000000     0.024500000000    -0.0914184  
C513     C      0.134140000000     0.232510000000     0.062230000000    -0.00148868 
C514     C      0.159520000000     0.227530000000     0.084780000000    -0.000913433
C515     C      0.190950000000     0.225660000000     0.069950000000    -0.0897986  
C516     C      0.196490000000     0.228570000000     0.032270000000    -0.00238444 
C517     C      0.180570000000     0.355120000000     0.907140000000    -0.00325521 
C518     C      0.158460000000     0.316540000000     0.897600000000    -0.090004   
C519     C      0.170220000000     0.303040000000     0.867890000000    -0.00276839 
C520     C      0.203290000000     0.327550000000     0.848170000000    -0.0031967  
C521     C      0.225440000000     0.366130000000     0.857760000000    -0.0891484  
C522     C      0.213690000000     0.379620000000     0.887480000000    -0.003288   
C523     C      0.905400000000     0.232970000000     0.951360000000    -0.0343684  
C524     C      0.870850000000     0.199390000000     0.944180000000     0.00825088 
C525     C      0.858180000000     0.189330000000     0.908430000000    -0.0352569  
C526     C      0.880040000000     0.212920000000     0.879840000000    -0.0355853  
C527     C      0.914580000000     0.246500000000     0.887020000000     0.0129199  
C528     C      0.927290000000     0.256520000000     0.922760000000    -0.0329609  
C529     C      0.946770000000     0.180920000000     0.028080000000    -0.00101508 
C530     C      0.975860000000     0.172680000000     0.018420000000    -0.0891323  
C531     C      0.974210000000     0.139410000000     0.031580000000    -0.00183726 
C532     C      0.944520000000     0.115280000000     0.054970000000    -0.000728283
C533     C      0.915330000000     0.123380000000     0.064540000000    -0.0896819  
C534     C      0.916300000000     0.156060000000     0.050490000000    -0.00158168 
C535     C      0.582830000000     0.123140000000     0.366870000000    -0.00222758 
C536     C      0.582230000000     0.128520000000     0.404410000000    -0.0895536  
C537     C      0.554690000000     0.136780000000     0.418890000000    -0.00103494 
C538     C      0.527970000000     0.139330000000     0.396290000000    -0.000767843
C539     C      0.529110000000     0.134820000000     0.358710000000    -0.0908845  
C540     C      0.556850000000     0.126940000000     0.344080000000    -0.0014638  
C541     C      0.774180000000     0.183060000000     0.399200000000    -0.000592419
C542     C      0.746170000000     0.192470000000     0.409830000000    -0.0905806  
C543     C      0.748320000000     0.225960000000     0.396660000000    -0.00139045 
C544     C      0.777280000000     0.249000000000     0.372140000000    -0.000630094
C545     C      0.805210000000     0.239530000000     0.361420000000    -0.0900758  
C546     C      0.803910000000     0.206800000000     0.375630000000    -0.0016037  
C547     C      0.553050000000     0.061200000000     0.561680000000    -0.00497952 
C548     C      0.566310000000     0.048080000000     0.532860000000    -0.0942313  
C549     C      0.546530000000     0.009030000000     0.524620000000    -0.00585542 
C550     C      0.514090000000     0.983730000000     0.544570000000    -0.00508487 
C551     C      0.500800000000     0.996830000000     0.573360000000    -0.0939881  
C552     C      0.520680000000     0.035840000000     0.581750000000    -0.00580946 
C553     C      0.808700000000     0.875720000000     0.546430000000    -0.0010577  
C554     C      0.771050000000     0.866420000000     0.536480000000    -0.0899939  
C555     C      0.739540000000     0.832910000000     0.549950000000    -0.00186726 
C556     C      0.745770000000     0.808400000000     0.572120000000    -0.000733581
C557     C      0.783490000000     0.817850000000     0.582120000000    -0.0900192  
C558     C      0.814840000000     0.851950000000     0.569540000000    -0.00126859 
C559     C      0.749380000000     0.060830000000     0.469530000000    -0.0344543  
C560     C      0.722620000000     0.034360000000     0.493860000000     0.0190676  
C561     C      0.684170000000     0.011020000000     0.483230000000    -0.0270745  
C562     C      0.672480000000     0.014160000000     0.448220000000    -0.0344928  
C563     C      0.699230000000     0.040650000000     0.423910000000     0.00139534 
C564     C      0.737670000000     0.063990000000     0.434550000000    -0.0291504  
C565     C      0.820060000000     0.050900000000     0.541880000000    -0.00230253 
C566     C      0.830380000000     0.024530000000     0.529190000000    -0.090279   
C567     C      0.866940000000     0.029580000000     0.537920000000    -0.00133283 
C568     C      0.892660000000     0.060380000000     0.559250000000    -0.00186503 
C569     C      0.882690000000     0.087270000000     0.571040000000    -0.0898395  
C570     C      0.846310000000     0.082440000000     0.562060000000    -0.00169443 
C571     C      0.643100000000     0.827570000000     0.413730000000    -0.00291053 
C572     C      0.683140000000     0.846180000000     0.407180000000    -0.089558   
C573     C      0.697040000000     0.833250000000     0.378760000000    -0.00295316 
C574     C      0.671560000000     0.802460000000     0.357390000000    -0.00280023 
C575     C      0.631530000000     0.783840000000     0.363890000000    -0.0896953  
C576     C      0.617580000000     0.796750000000     0.392310000000    -0.00292101 
H1       H      0.277420000000     0.317150000000     0.098460000000     0.0556025  
H2       H      0.201380000000     0.332960000000     0.027250000000     0.0476065  
H3       H      0.162810000000     0.332670000000     0.080280000000     0.0445276  
H4       H      0.238800000000     0.316730000000     0.151480000000     0.0424218  
H5       H      0.331110000000     0.131650000000     0.265770000000     0.0430421  
H6       H      0.427670000000     0.209470000000     0.199470000000     0.0444515  
H7       H      0.384890000000     0.223270000000     0.163740000000     0.0445281  
H8       H      0.288170000000     0.145450000000     0.229890000000     0.0451934  
H9       H      0.437610000000     0.050120000000     0.395030000000     0.0469886  
H10      H      0.503190000000     0.046110000000     0.485550000000     0.0461484  
H11      H      0.541130000000     0.028790000000     0.444040000000     0.0496477  
H12      H      0.475630000000     0.032960000000     0.353570000000     0.046147   
H13      H      0.143410000000     0.777760000000     0.428550000000     0.044614   
H14      H      0.126240000000     0.856470000000     0.362750000000     0.0454817  
H15      H      0.183590000000     0.870810000000     0.327660000000     0.0455149  
H16      H      0.200780000000     0.792150000000     0.393530000000     0.044905   
H17      H      0.869270000000     0.673040000000     0.360240000000     0.0483734  
H18      H      0.941730000000     0.647780000000     0.427180000000     0.0558317  
H19      H      0.905280000000     0.647890000000     0.481730000000     0.0424773  
H20      H      0.832810000000     0.673200000000     0.414800000000     0.0442867  
H21      H      0.000910000000     0.466680000000     0.598380000000     0.0426926  
H22      H      0.097730000000     0.544410000000     0.532240000000     0.0444813  
H23      H      0.054710000000     0.556010000000     0.494620000000     0.0444031  
H24      H      0.957660000000     0.478340000000     0.560560000000     0.0447525  
H25      H      0.108010000000     0.284180000000     0.442760000000     0.0462503  
H26      H      0.036970000000     0.277630000000     0.532840000000     0.0473838  
H27      H      0.091760000000     0.293880000000     0.574910000000     0.0464854  
H28      H      0.162890000000     0.300570000000     0.484880000000     0.0502831  
H29      H      0.798250000000     0.187980000000     0.697950000000     0.0449464  
H30      H      0.815360000000     0.110320000000     0.765500000000     0.0446269  
H31      H      0.870980000000     0.121900000000     0.728940000000     0.0451096  
H32      H      0.853760000000     0.199520000000     0.661450000000     0.0450093  
H33      H      0.524120000000     0.014510000000     0.665420000000     0.0501693  
H34      H      0.579620000000     0.997840000000     0.757710000000     0.044909   
H35      H      0.620540000000     0.984060000000     0.716710000000     0.0504053  
H36      H      0.564790000000     0.000380000000     0.624360000000     0.0458943  
H37      H      0.784030000000     0.889010000000     0.856520000000     0.0447408  
H38      H      0.688010000000     0.809570000000     0.922490000000     0.0450238  
H39      H      0.644140000000     0.820590000000     0.885790000000     0.0448621  
H40      H      0.739720000000     0.900010000000     0.819380000000     0.0435315  
H41      H      0.778010000000     0.623450000000     0.777420000000     0.0460571  
H42      H      0.697800000000     0.610570000000     0.861180000000     0.0470242  
H43      H      0.748930000000     0.626920000000     0.907610000000     0.0467388  
H44      H      0.829230000000     0.640000000000     0.823890000000     0.0509681  
H45      H      0.529160000000     0.457180000000     0.054280000000     0.0455137  
H46      H      0.512040000000     0.535480000000     0.987760000000     0.0442045  
H47      H      0.457090000000     0.524460000000     0.025470000000     0.0448683  
H48      H      0.474670000000     0.446230000000     0.091650000000     0.0450999  
H49      H      0.299040000000     0.092210000000     0.016490000000     0.0396475  
H50      H      0.175510000000     0.045570000000     0.022270000000     0.041018   
H51      H      0.184790000000     0.095900000000     0.064720000000     0.0420381  
H52      H      0.308410000000     0.143570000000     0.057720000000     0.0420117  
H53      H      0.541240000000     0.043070000000     0.896580000000     0.0417991  
H54      H      0.585190000000     0.164180000000     0.901650000000     0.0417948  
H55      H      0.639800000000     0.174930000000     0.862920000000     0.0418968  
H56      H      0.596570000000     0.053900000000     0.859330000000     0.0410353  
H57      H      0.359440000000     0.071350000000     0.909160000000     0.0547272  
H58      H      0.330970000000     0.145770000000     0.850710000000     0.048692   
H59      H      0.324800000000     0.173140000000     0.908960000000     0.0437083  
H60      H      0.353200000000     0.098630000000     0.967390000000     0.0443722  
H61      H      0.134970000000     0.602240000000     0.779270000000     0.040345   
H62      H      0.160490000000     0.670470000000     0.682470000000     0.0398265  
H63      H      0.154370000000     0.617020000000     0.646070000000     0.0409924  
H64      H      0.127270000000     0.548390000000     0.742840000000     0.0411306  
H65      H      0.223040000000     0.817180000000     0.889020000000     0.0452485  
H66      H      0.138620000000     0.829070000000     0.825330000000     0.0451556  
H67      H      0.151470000000     0.885060000000     0.860600000000     0.045337   
H68      H      0.235950000000     0.873020000000     0.924060000000     0.0448597  
H69      H      0.732930000000     0.525170000000     0.809400000000     0.0406732  
H70      H      0.797840000000     0.547070000000     0.908810000000     0.0408619  
H71      H      0.741420000000     0.537640000000     0.943390000000     0.0401248  
H72      H      0.676770000000     0.517250000000     0.844070000000     0.0394238  
H73      H      0.044910000000     0.593770000000     0.740610000000     0.0464429  
H74      H      0.036110000000     0.517950000000     0.655300000000     0.0504857  
H75      H      0.055590000000     0.570180000000     0.610340000000     0.0460881  
H76      H      0.064170000000     0.645910000000     0.695680000000     0.0478464  
H77      H      0.866660000000     0.700220000000     0.563490000000     0.0405784  
H78      H      0.909520000000     0.821220000000     0.562940000000     0.0398747  
H79      H      0.959860000000     0.830080000000     0.519730000000     0.0410894  
H80      H      0.918380000000     0.709310000000     0.521490000000     0.0395249  
H81      H      0.871880000000     0.721900000000     0.735020000000     0.0450925  
H82      H      0.792760000000     0.627840000000     0.667720000000     0.0443599  
H83      H      0.806910000000     0.585150000000     0.702230000000     0.0442785  
H84      H      0.886010000000     0.679000000000     0.769750000000     0.0432266  
H85      H      0.689600000000     0.827940000000     0.746010000000     0.0492295  
H86      H      0.670640000000     0.722620000000     0.700370000000     0.0487216  
H87      H      0.675530000000     0.748750000000     0.638370000000     0.0470264  
H88      H      0.694330000000     0.854030000000     0.683990000000     0.0445323  
H89      H      0.581480000000     0.756660000000     0.644810000000     0.0404257  
H90      H      0.573300000000     0.695780000000     0.743490000000     0.0393209  
H91      H      0.583470000000     0.751160000000     0.779190000000     0.0401038  
H92      H      0.593410000000     0.812530000000     0.680400000000     0.0392155  
H93      H      0.570240000000     0.475650000000     0.563250000000     0.0446432  
H94      H      0.488790000000     0.491530000000     0.498770000000     0.0448138  
H95      H      0.500830000000     0.545810000000     0.535760000000     0.0450202  
H96      H      0.582310000000     0.530260000000     0.600530000000     0.0438717  
H97      H      0.499770000000     0.332860000000     0.350710000000     0.0390955  
H98      H      0.478520000000     0.263800000000     0.446310000000     0.0388805  
H99      H      0.466060000000     0.209330000000     0.408190000000     0.0399319  
H100     H      0.489000000000     0.278780000000     0.312510000000     0.0406855  
H101     H      0.137210000000     0.210950000000     0.570730000000     0.0419672  
H102     H      0.064280000000     0.188460000000     0.476810000000     0.0413029  
H103     H      0.011900000000     0.182500000000     0.515870000000     0.0401783  
H104     H      0.084160000000     0.203390000000     0.609930000000     0.0403829  
H105     H      0.368980000000     0.181550000000     0.323670000000     0.0506614  
H106     H      0.387900000000     0.257840000000     0.411880000000     0.0467897  
H107     H      0.406380000000     0.310830000000     0.368100000000     0.0479361  
H108     H      0.387750000000     0.234630000000     0.279860000000     0.0461279  
H109     H      0.255810000000     0.381090000000     0.188290000000     0.039101   
H110     H      0.297570000000     0.501740000000     0.194460000000     0.040028   
H111     H      0.245230000000     0.489810000000     0.236730000000     0.0416895  
H112     H      0.202420000000     0.369030000000     0.229150000000     0.0413746  
H113     H      0.197430000000     0.379160000000     0.395380000000     0.0449312  
H114     H      0.114600000000     0.286270000000     0.329120000000     0.0443815  
H115     H      0.129210000000     0.242640000000     0.361430000000     0.0442062  
H116     H      0.212150000000     0.335430000000     0.427710000000     0.0427282  
H117     H      0.020100000000     0.423800000000     0.299780000000     0.0465629  
H118     H      0.002140000000     0.512520000000     0.257410000000     0.0428435  
H119     H      0.005950000000     0.492350000000     0.194610000000     0.0480346  
H120     H      0.024120000000     0.403810000000     0.237000000000     0.0517584  
H121     H      0.844520000000     0.377810000000     0.351620000000     0.0409583  
H122     H      0.967450000000     0.420000000000     0.350960000000     0.0396318  
H123     H      0.977280000000     0.472460000000     0.390890000000     0.0415421  
H124     H      0.854160000000     0.429150000000     0.392990000000     0.0417512  
H125     H      0.892620000000     0.145070000000     0.226450000000     0.0449702  
H126     H      0.806880000000     0.154390000000     0.162410000000     0.0443776  
H127     H      0.819390000000     0.210930000000     0.196550000000     0.0448257  
H128     H      0.905090000000     0.201380000000     0.260420000000     0.0448128  
H129     H      0.880500000000     0.985130000000     0.074910000000     0.0414559  
H130     H      0.757640000000     0.940240000000     0.063430000000     0.039729   
H131     H      0.753610000000     0.889510000000     0.024020000000     0.0401308  
H132     H      0.876740000000     0.935780000000     0.034160000000     0.0398431  
H133     H      0.401670000000     0.871080000000     0.146160000000     0.0420433  
H134     H      0.471500000000     0.885940000000     0.240830000000     0.0413344  
H135     H      0.418180000000     0.878170000000     0.279820000000     0.0415153  
H136     H      0.349130000000     0.865040000000     0.184970000000     0.0426195  
H137     H      0.466050000000     0.918730000000     0.028260000000     0.0450409  
H138     H      0.545390000000     0.012570000000     0.095660000000     0.044625   
H139     H      0.531480000000     0.055570000000     0.060810000000     0.0451737  
H140     H      0.452200000000     0.961520000000     0.993580000000     0.0445094  
H141     H      0.687370000000     0.890900000000     0.182760000000     0.041303   
H142     H      0.655300000000     0.976630000000     0.167980000000     0.0371695  
H143     H      0.678600000000     0.985800000000     0.104270000000     0.0440845  
H144     H      0.710740000000     0.900110000000     0.119070000000     0.0422594  
H145     H      0.888700000000     0.743020000000     0.064890000000     0.0408808  
H146     H      0.964960000000     0.864530000000     0.069860000000     0.0400725  
H147     H      0.923200000000     0.873880000000     0.027280000000     0.0408697  
H148     H      0.845910000000     0.752470000000     0.023500000000     0.0417275  
H149     H      0.068450000000     0.903090000000     0.080310000000     0.0410186  
H150     H      0.114500000000     0.826690000000     0.076540000000     0.0385413  
H151     H      0.163670000000     0.868970000000     0.032820000000     0.0406574  
H152     H      0.116360000000     0.944310000000     0.035590000000     0.0400258  
H153     H      0.106450000000     0.560810000000     0.249200000000     0.0394533  
H154     H      0.114980000000     0.503090000000     0.154450000000     0.0404826  
H155     H      0.119190000000     0.456200000000     0.193220000000     0.0413937  
H156     H      0.112550000000     0.514800000000     0.288210000000     0.0404529  
H157     H      0.004550000000     0.657860000000     0.166240000000     0.0385381  
H158     H      0.118050000000     0.748700000000     0.139640000000     0.0422704  
H159     H      0.094440000000     0.754530000000     0.078880000000     0.0411892  
H160     H      0.980930000000     0.663780000000     0.105490000000     0.0369635  
H161     H      0.132270000000     0.719220000000     0.197790000000     0.0403291  
H162     H      0.218810000000     0.684900000000     0.196990000000     0.0422578  
H163     H      0.260800000000     0.739790000000     0.235230000000     0.0410058  
H164     H      0.174930000000     0.774940000000     0.234280000000     0.0408369  
H165     H      0.486840000000     0.730890000000     0.228830000000     0.0404369  
H166     H      0.610430000000     0.805770000000     0.229060000000     0.0397167  
H167     H      0.602650000000     0.850420000000     0.189610000000     0.040719   
H168     H      0.479250000000     0.774570000000     0.188170000000     0.0421708  
H169     H      0.444560000000     0.622810000000     0.235890000000     0.0408899  
H170     H      0.525610000000     0.581520000000     0.237000000000     0.0406843  
H171     H      0.482630000000     0.528750000000     0.197110000000     0.0411841  
H172     H      0.402520000000     0.571130000000     0.194780000000     0.0404783  
H173     H      0.784010000000     0.572080000000     0.406520000000     0.0399512  
H174     H      0.848020000000     0.573360000000     0.311800000000     0.0397027  
H175     H      0.891840000000     0.562510000000     0.350130000000     0.0413307  
H176     H      0.826840000000     0.559540000000     0.444810000000     0.0413937  
H177     H      0.892610000000     0.667530000000     0.167050000000     0.0436376  
H178     H      0.903310000000     0.759080000000     0.235100000000     0.0447717  
H179     H      0.844690000000     0.714420000000     0.267340000000     0.0438569  
H180     H      0.834200000000     0.623110000000     0.199050000000     0.0441778  
H181     H      0.681090000000     0.702140000000     0.263590000000     0.0360822  
H182     H      0.648810000000     0.619880000000     0.349050000000     0.0419192  
H183     H      0.597240000000     0.571080000000     0.309740000000     0.0414259  
H184     H      0.629520000000     0.653370000000     0.224350000000     0.0396397  
H185     H      0.626290000000     0.549300000000     0.359550000000     0.0369388  
H186     H      0.670450000000     0.471680000000     0.350390000000     0.0420208  
H187     H      0.619360000000     0.426980000000     0.391220000000     0.0410933  
H188     H      0.574160000000     0.503850000000     0.398760000000     0.0405797  
H189     H      0.232140000000     0.471740000000     0.650140000000     0.0416194  
H190     H      0.174530000000     0.478430000000     0.746510000000     0.0407302  
H191     H      0.219060000000     0.467660000000     0.784150000000     0.0407031  
H192     H      0.275350000000     0.459180000000     0.687640000000     0.0398585  
H193     H      0.380050000000     0.486090000000     0.687630000000     0.040093   
H194     H      0.446110000000     0.541730000000     0.783560000000     0.041063   
H195     H      0.500440000000     0.585930000000     0.745410000000     0.0394097  
H196     H      0.433700000000     0.531370000000     0.649530000000     0.0398765  
H197     H      0.429880000000     0.225950000000     0.910650000000     0.0405521  
H198     H      0.439880000000     0.170490000000     0.814800000000     0.0405049  
H199     H      0.451540000000     0.127570000000     0.852760000000     0.0411733  
H200     H      0.443320000000     0.184070000000     0.948660000000     0.0408178  
H201     H      0.477340000000     0.452760000000     0.818650000000     0.0422737  
H202     H      0.490950000000     0.497550000000     0.710810000000     0.0489414  
H203     H      0.430820000000     0.439310000000     0.691820000000     0.0444982  
H204     H      0.417520000000     0.394220000000     0.799510000000     0.0484713  
H205     H      0.452380000000     0.385490000000     0.857300000000     0.037462   
H206     H      0.532390000000     0.342980000000     0.856150000000     0.0415472  
H207     H      0.577790000000     0.397160000000     0.893400000000     0.0413396  
H208     H      0.498590000000     0.440650000000     0.892860000000     0.0396868  
H209     H      0.510010000000     0.903130000000     0.780330000000     0.040486   
H210     H      0.558030000000     0.888240000000     0.681020000000     0.0392934  
H211     H      0.510880000000     0.897160000000     0.646000000000     0.0404938  
H212     H      0.463860000000     0.913670000000     0.745210000000     0.0412073  
H213     H      0.332270000000     0.803540000000     0.690720000000     0.0424346  
H214     H      0.298770000000     0.889200000000     0.702180000000     0.0403436  
H215     H      0.242270000000     0.844730000000     0.737570000000     0.0398579  
H216     H      0.276690000000     0.759640000000     0.727990000000     0.0402991  
H217     H      0.147420000000     0.052900000000     0.560480000000     0.040181   
H218     H      0.271070000000     0.126970000000     0.563990000000     0.0405702  
H219     H      0.265280000000     0.171110000000     0.522190000000     0.0414593  
H220     H      0.141800000000     0.096040000000     0.517470000000     0.0421726  
H221     H      0.349470000000     0.015150000000     0.669510000000     0.0407918  
H222     H      0.262680000000     0.899900000000     0.646520000000     0.0426766  
H223     H      0.254790000000     0.919170000000     0.584500000000     0.04107    
H224     H      0.341470000000     0.034430000000     0.607510000000     0.0357874  
H225     H      0.064230000000     0.896940000000     0.529650000000     0.0404229  
H226     H      0.142110000000     0.852090000000     0.536320000000     0.0410229  
H227     H      0.183460000000     0.903460000000     0.578250000000     0.0388483  
H228     H      0.104600000000     0.947230000000     0.572650000000     0.0409658  
H229     H      0.383150000000     0.178700000000     0.703600000000     0.0442447  
H230     H      0.287730000000     0.166480000000     0.768930000000     0.0436015  
H231     H      0.243660000000     0.109650000000     0.734600000000     0.0446353  
H232     H      0.339450000000     0.122190000000     0.669650000000     0.0435549  
H233     H      0.894650000000     0.407730000000     0.855210000000     0.0400916  
H234     H      0.879980000000     0.459650000000     0.951470000000     0.0408985  
H235     H      0.870430000000     0.504210000000     0.913620000000     0.0407595  
H236     H      0.883280000000     0.451030000000     0.817380000000     0.0414457  
H237     H      0.865750000000     0.302090000000     0.856450000000     0.0407806  
H238     H      0.805730000000     0.237290000000     0.951390000000     0.0410498  
H239     H      0.760410000000     0.184710000000     0.912430000000     0.0399815  
H240     H      0.819520000000     0.250370000000     0.817640000000     0.0402115  
H241     H      0.937920000000     0.448920000000     0.064770000000     0.0447523  
H242     H      0.034500000000     0.468220000000     0.997180000000     0.0444648  
H243     H      0.077010000000     0.523980000000     0.033220000000     0.0447057  
H244     H      0.980320000000     0.504550000000     0.100690000000     0.0432112  
H245     H      0.174820000000     0.233780000000     0.980610000000     0.0396649  
H246     H      0.110180000000     0.234090000000     0.074160000000     0.0393517  
H247     H      0.154850000000     0.225580000000     0.113810000000     0.041088   
H248     H      0.220440000000     0.227040000000     0.020230000000     0.0417578  
H249     H      0.172450000000     0.366460000000     0.929940000000     0.0438212  
H250     H      0.153910000000     0.273460000000     0.859800000000     0.0449385  
H251     H      0.211450000000     0.316200000000     0.825420000000     0.0451765  
H252     H      0.230010000000     0.409190000000     0.895580000000     0.0447791  
H253     H      0.915120000000     0.240650000000     0.979050000000     0.0423377  
H254     H      0.831370000000     0.163400000000     0.902970000000     0.0466447  
H255     H      0.870220000000     0.205310000000     0.852160000000     0.0458187  
H256     H      0.954040000000     0.282510000000     0.928210000000     0.0507891  
H257     H      0.947480000000     0.206420000000     0.018090000000     0.0389836  
H258     H      0.996460000000     0.132630000000     0.024580000000     0.0415581  
H259     H      0.944210000000     0.090110000000     0.065390000000     0.0404334  
H260     H      0.894110000000     0.162890000000     0.057630000000     0.040805   
H261     H      0.603870000000     0.116820000000     0.355120000000     0.0415221  
H262     H      0.553460000000     0.140720000000     0.447800000000     0.0413565  
H263     H      0.506860000000     0.145530000000     0.408100000000     0.0389175  
H264     H      0.558120000000     0.123310000000     0.315110000000     0.0396264  
H265     H      0.773050000000     0.157360000000     0.409130000000     0.0388827  
H266     H      0.726860000000     0.233600000000     0.404360000000     0.0419133  
H267     H      0.777900000000     0.274270000000     0.361580000000     0.0406585  
H268     H      0.825110000000     0.198930000000     0.367590000000     0.0408399  
H269     H      0.567600000000     0.091090000000     0.568750000000     0.0436676  
H270     H      0.555920000000     0.997930000000     0.502590000000     0.0409082  
H271     H      0.499570000000     0.953850000000     0.537470000000     0.0433452  
H272     H      0.511270000000     0.046870000000     0.603820000000     0.041773   
H273     H      0.833400000000     0.901520000000     0.536450000000     0.0403526  
H274     H      0.710260000000     0.825180000000     0.542480000000     0.0406526  
H275     H      0.721190000000     0.782230000000     0.581590000000     0.0386556  
H276     H      0.844190000000     0.859690000000     0.576750000000     0.0408047  
H277     H      0.779080000000     0.078830000000     0.477840000000     0.0419184  
H278     H      0.663560000000     0.990600000000     0.502130000000     0.0388267  
H279     H      0.642770000000     0.996190000000     0.439920000000     0.0356148  
H280     H      0.758270000000     0.084460000000     0.415670000000     0.0403863  
H281     H      0.792030000000     0.047560000000     0.535570000000     0.0395354  
H282     H      0.875420000000     0.009440000000     0.528610000000     0.0408878  
H283     H      0.920650000000     0.063690000000     0.565830000000     0.0405261  
H284     H      0.838010000000     0.102810000000     0.571080000000     0.0403215  
H285     H      0.631380000000     0.836800000000     0.435400000000     0.0441478  
H286     H      0.727670000000     0.846890000000     0.372930000000     0.0448589  
H287     H      0.683360000000     0.793290000000     0.335740000000     0.0442792  
H288     H      0.586940000000     0.783060000000     0.398090000000     0.0445172  
Ni1      Ni     0.783380000000     0.938870000000     0.450470000000     0.997571   
Ni2      Ni     0.730220000000     0.932390000000     0.485840000000     0.987433   
Ni3      Ni     0.659410000000     0.147050000000     0.489210000000     0.992607   
Ni4      Ni     0.654670000000     0.094730000000     0.455160000000     0.994575   
Ni5      Ni     0.063030000000     0.218630000000     0.939620000000     0.996191   
Ni6      Ni     0.068770000000     0.270860000000     0.974560000000     0.987179   
Ni7      Ni     0.885210000000     0.356880000000     0.987800000000     0.992709   
Ni8      Ni     0.937470000000     0.368530000000     0.948290000000     0.991994   
Ni9      Ni     0.189490000000     0.016710000000     0.655590000000     0.991691   
Ni10     Ni     0.244440000000     0.020840000000     0.625350000000     0.995628   
Ni11     Ni     0.405260000000     0.897690000000     0.613450000000     0.994933   
Ni12     Ni     0.414220000000     0.948340000000     0.652740000000     0.990658   
Ni13     Ni     0.439280000000     0.273590000000     0.776400000000     0.998391   
Ni14     Ni     0.388150000000     0.265850000000     0.815580000000     0.985849   
Ni15     Ni     0.324620000000     0.463160000000     0.819500000000     0.992156   
Ni16     Ni     0.312860000000     0.412730000000     0.778630000000     0.995518   
Ni17     Ni     0.738470000000     0.564700000000     0.272650000000     0.997364   
Ni18     Ni     0.744240000000     0.614560000000     0.311370000000     0.989796   
Ni19     Ni     0.532120000000     0.691620000000     0.318490000000     0.992822   
Ni20     Ni     0.586420000000     0.697510000000     0.285530000000     0.993577   
Ni21     Ni     0.129740000000     0.612280000000     0.115200000000     0.994713   
Ni22     Ni     0.075140000000     0.605480000000     0.148240000000     0.988373   
Ni23     Ni     0.000110000000     0.815810000000     0.159640000000     0.993027   
Ni24     Ni     0.995290000000     0.763550000000     0.125360000000     0.997802   
Ni25     Ni     0.501780000000     0.863450000000     0.106670000000     0.997565   
Ni26     Ni     0.548500000000     0.915100000000     0.142440000000     0.984718   
Ni27     Ni     0.855350000000     0.051460000000     0.151230000000     0.997557   
Ni28     Ni     0.808140000000     0.056390000000     0.115230000000     0.984308   
Ni29     Ni     0.861310000000     0.307220000000     0.271370000000     0.991668   
Ni30     Ni     0.909600000000     0.301750000000     0.305040000000     0.995218   
Ni31     Ni     0.154750000000     0.434420000000     0.322340000000     0.990509   
Ni32     Ni     0.111130000000     0.383120000000     0.284330000000     0.99514    
Ni33     Ni     0.166620000000     0.185880000000     0.436810000000     0.994887   
Ni34     Ni     0.213080000000     0.236850000000     0.473410000000     0.989474   
Ni35     Ni     0.531760000000     0.385820000000     0.481850000000     0.990505   
Ni36     Ni     0.485900000000     0.394580000000     0.447490000000     0.992894   
Ni37     Ni     0.538880000000     0.637030000000     0.612390000000     0.997236   
Ni38     Ni     0.581660000000     0.627950000000     0.651270000000     0.986083   
Ni39     Ni     0.830640000000     0.774870000000     0.657340000000     0.995933   
Ni40     Ni     0.781530000000     0.721200000000     0.625340000000     0.991418   
Ni41     Ni     0.843430000000     0.530030000000     0.779740000000     0.992865   
Ni42     Ni     0.883180000000     0.580280000000     0.820590000000     0.992681   
Ni43     Ni     0.182570000000     0.722850000000     0.814420000000     0.995686   
Ni44     Ni     0.142530000000     0.734140000000     0.773860000000     0.989802   
Ni45     Ni     0.489370000000     0.108560000000     0.983840000000     0.987885   
Ni46     Ni     0.448000000000     0.056420000000     0.945530000000     0.996448   
Ni47     Ni     0.191250000000     0.977650000000     0.939190000000     0.995141   
Ni48     Ni     0.243040000000     0.974610000000     0.968790000000     0.993996   
Ni49     Ni     0.619850000000     0.491770000000     0.975850000000     0.999759   
Ni50     Ni     0.609810000000     0.532970000000     0.936450000000     0.984318   
Ni51     Ni     0.838350000000     0.855210000000     0.941150000000     0.99204    
Ni52     Ni     0.783490000000     0.806380000000     0.972350000000     0.993951   
Ni53     Ni     0.708670000000     0.154490000000     0.778770000000     0.995287   
Ni54     Ni     0.714800000000     0.108010000000     0.813690000000     0.991491   
Ni55     Ni     0.588330000000     0.859440000000     0.812000000000     0.997966   
Ni56     Ni     0.638330000000     0.897820000000     0.769930000000     0.986389   
Ni57     Ni     0.962610000000     0.158240000000     0.649050000000     0.992602   
Ni58     Ni     0.950420000000     0.198190000000     0.609900000000     0.992977   
Ni59     Ni     0.152350000000     0.510640000000     0.612990000000     0.996071   
Ni60     Ni     0.099970000000     0.468910000000     0.651410000000     0.99161    
Ni61     Ni     0.905290000000     0.517380000000     0.480010000000     0.991649   
Ni62     Ni     0.959640000000     0.561000000000     0.444610000000     0.994693   
Ni63     Ni     0.031300000000     0.814910000000     0.439890000000     0.994824   
Ni64     Ni     0.038420000000     0.768010000000     0.473050000000     0.990933   
Ni65     Ni     0.481500000000     0.170060000000     0.276340000000     0.992867   
Ni66     Ni     0.429450000000     0.129870000000     0.315820000000     0.990061   
Ni67     Ni     0.296340000000     0.834260000000     0.317320000000     0.989406   
Ni68     Ni     0.282750000000     0.872610000000     0.277320000000     0.995663   
Ni69     Ni     0.235140000000     0.184740000000     0.150230000000     0.990878   
Ni70     Ni     0.289280000000     0.229120000000     0.115090000000     0.991455   
Ni71     Ni     0.365390000000     0.485820000000     0.107360000000     0.991206   
Ni72     Ni     0.374910000000     0.440680000000     0.141080000000     0.997988   
O1       O      0.775610000000     0.972270000000     0.419140000000    -0.423449   
O2       O      0.787900000000     0.905410000000     0.484140000000    -0.436039   
O3       O      0.746520000000     0.896030000000     0.422780000000    -0.434809   
O4       O      0.816590000000     0.981000000000     0.480720000000    -0.435253   
O5       O      0.767010000000     0.975430000000     0.513450000000    -0.433269   
O6       O      0.697050000000     0.890020000000     0.455830000000    -0.435275   
O7       O      0.738050000000     0.898860000000     0.517090000000    -0.432005   
O8       O      0.725810000000     0.966070000000     0.452120000000    -0.422997   
O9       O      0.695000000000     0.142170000000     0.520630000000    -0.422797   
O10      O      0.623340000000     0.148400000000     0.455920000000    -0.435739   
O11      O      0.617080000000     0.110630000000     0.517970000000    -0.435198   
O12      O      0.701260000000     0.179820000000     0.457750000000    -0.432246   
O13      O      0.698180000000     0.130610000000     0.427690000000    -0.436869   
O14      O      0.611540000000     0.062110000000     0.484970000000    -0.441085   
O15      O      0.620630000000     0.101180000000     0.422650000000    -0.43387    
O16      O      0.689010000000     0.092030000000     0.489900000000    -0.422572   
O17      O      0.028140000000     0.225080000000     0.908510000000    -0.421831   
O18      O      0.098530000000     0.215890000000     0.972730000000    -0.434994   
O19      O      0.020810000000     0.185900000000     0.970600000000    -0.433229   
O20      O      0.105820000000     0.254770000000     0.911320000000    -0.435681   
O21      O      0.112740000000     0.303290000000     0.945190000000    -0.434385   
O22      O      0.024460000000     0.234940000000     0.001460000000    -0.433053   
O23      O      0.101800000000     0.262810000000     0.006950000000    -0.433381   
O24      O      0.035300000000     0.275330000000     0.939980000000    -0.422908   
O25      O      0.898410000000     0.325220000000     0.016060000000    -0.422154   
O26      O      0.875680000000     0.389610000000     0.956990000000    -0.431605   
O27      O      0.852710000000     0.314070000000     0.957840000000    -0.433931   
O28      O      0.921100000000     0.400310000000     0.015130000000    -0.435832   
O29      O      0.969930000000     0.411370000000     0.978390000000    -0.433576   
O30      O      0.901420000000     0.325240000000     0.920760000000    -0.435688   
O31      O      0.924110000000     0.399870000000     0.919900000000    -0.434024   
O32      O      0.947320000000     0.336170000000     0.979150000000    -0.425232   
O33      O      0.194340000000     0.984310000000     0.690590000000    -0.42219    
O34      O      0.187950000000     0.049040000000     0.618600000000    -0.43471    
O35      O      0.157920000000     0.973470000000     0.625710000000    -0.43347    
O36      O      0.224980000000     0.060620000000     0.683160000000    -0.431975   
O37      O      0.275970000000     0.064240000000     0.654720000000    -0.438025   
O38      O      0.209280000000     0.977040000000     0.597890000000    -0.434492   
O39      O      0.239520000000     0.053440000000     0.590470000000    -0.432308   
O40      O      0.245740000000     0.988220000000     0.662340000000    -0.422319   
O41      O      0.370420000000     0.907500000000     0.585770000000    -0.423151   
O42      O      0.440910000000     0.891450000000     0.643330000000    -0.435984   
O43      O      0.363500000000     0.863950000000     0.644460000000    -0.433019   
O44      O      0.447800000000     0.934780000000     0.585480000000    -0.436421   
O45      O      0.457230000000     0.981690000000     0.623040000000    -0.439714   
O46      O      0.370540000000     0.911720000000     0.679710000000    -0.435932   
O47      O      0.447580000000     0.937130000000     0.681360000000    -0.434326   
O48      O      0.380300000000     0.956080000000     0.621500000000    -0.423366   
O49      O      0.428440000000     0.306410000000     0.747240000000    -0.422565   
O50      O      0.446570000000     0.240150000000     0.807850000000    -0.435993   
O51      O      0.401580000000     0.230460000000     0.749900000000    -0.436811   
O52      O      0.473700000000     0.316000000000     0.805890000000    -0.433995   
O53      O      0.425540000000     0.310290000000     0.840970000000    -0.433609   
O54      O      0.354130000000     0.221880000000     0.787400000000    -0.433955   
O55      O      0.400600000000     0.234810000000     0.845820000000    -0.434155   
O56      O      0.379320000000     0.297560000000     0.782870000000    -0.42215    
O57      O      0.356810000000     0.449520000000     0.846900000000    -0.422333   
O58      O      0.291390000000     0.473260000000     0.789490000000    -0.43207    
O59      O      0.280440000000     0.427120000000     0.846400000000    -0.43514    
O60      O      0.368060000000     0.495910000000     0.789780000000    -0.433251   
O61      O      0.356760000000     0.448880000000     0.751460000000    -0.435369   
O62      O      0.269340000000     0.380050000000     0.808350000000    -0.433778   
O63      O      0.281050000000     0.426550000000     0.751130000000    -0.435334   
O64      O      0.345740000000     0.402310000000     0.808740000000    -0.423651   
O65      O      0.703870000000     0.573290000000     0.243240000000    -0.423468   
O66      O      0.773550000000     0.559550000000     0.304240000000    -0.436824   
O67      O      0.696100000000     0.529970000000     0.302510000000    -0.433641   
O68      O      0.781550000000     0.602730000000     0.245950000000    -0.436284   
O69      O      0.788360000000     0.648900000000     0.283270000000    -0.435938   
O70      O      0.699880000000     0.576960000000     0.336950000000    -0.436442   
O71      O      0.776890000000     0.604180000000     0.341920000000    -0.43514    
O72      O      0.711140000000     0.621410000000     0.278240000000    -0.423413   
O73      O      0.538140000000     0.658010000000     0.351030000000    -0.422596   
O74      O      0.529340000000     0.725280000000     0.283810000000    -0.435224   
O75      O      0.499960000000     0.649480000000     0.287660000000    -0.433473   
O76      O      0.568200000000     0.734430000000     0.346900000000    -0.432777   
O77      O      0.618600000000     0.739680000000     0.315980000000    -0.437618   
O78      O      0.550730000000     0.654710000000     0.257260000000    -0.435038   
O79      O      0.580310000000     0.731370000000     0.253140000000    -0.431918   
O80      O      0.588910000000     0.663570000000     0.320250000000    -0.422325   
O81      O      0.124030000000     0.646860000000     0.083730000000    -0.422714   
O82      O      0.131590000000     0.577010000000     0.148470000000    -0.435576   
O83      O      0.094320000000     0.570420000000     0.085720000000    -0.434687   
O84      O      0.161530000000     0.653540000000     0.147220000000    -0.432727   
O85      O      0.110260000000     0.648730000000     0.176290000000    -0.435406   
O86      O      0.043640000000     0.562690000000     0.117900000000    -0.436501   
O87      O      0.082370000000     0.572650000000     0.180960000000    -0.434919   
O88      O      0.071580000000     0.638720000000     0.113360000000    -0.422688   
O89      O      0.032590000000     0.808250000000     0.192980000000    -0.422739   
O90      O      0.967680000000     0.820240000000     0.124070000000    -0.435156   
O91      O      0.955200000000     0.779450000000     0.185880000000    -0.432977   
O92      O      0.044190000000     0.848440000000     0.130670000000    -0.434368   
O93      O      0.039950000000     0.799590000000     0.099020000000    -0.435449   
O94      O      0.950980000000     0.730960000000     0.153750000000    -0.438738   
O95      O      0.962600000000     0.771170000000     0.092170000000    -0.432367   
O96      O      0.028050000000     0.759410000000     0.160950000000    -0.423229   
O97      O      0.543550000000     0.869930000000     0.076180000000    -0.422694   
O98      O      0.463110000000     0.860610000000     0.139200000000    -0.435045   
O99      O      0.496360000000     0.900160000000     0.078440000000    -0.436065   
O100     O      0.510070000000     0.830120000000     0.137630000000    -0.433608   
O101     O      0.555620000000     0.878560000000     0.169420000000    -0.432352   
O102     O      0.538270000000     0.948210000000     0.112940000000    -0.432655   
O103     O      0.506890000000     0.907060000000     0.174110000000    -0.431119   
O104     O      0.586900000000     0.919600000000     0.108490000000    -0.423556   
O105     O      0.814040000000     0.018140000000     0.182770000000    -0.423349   
O106     O      0.893440000000     0.084740000000     0.117250000000    -0.435183   
O107     O      0.861250000000     0.094550000000     0.178040000000    -0.434495   
O108     O      0.846710000000     0.009120000000     0.121770000000    -0.435286   
O109     O      0.802310000000     0.013240000000     0.088270000000    -0.430462   
O110     O      0.817210000000     0.099160000000     0.144560000000    -0.432597   
O111     O      0.849610000000     0.089940000000     0.083830000000    -0.43117    
O112     O      0.769910000000     0.022740000000     0.149080000000    -0.422674   
O113     O      0.901050000000     0.338490000000     0.237580000000    -0.422327   
O114     O      0.824850000000     0.275990000000     0.307370000000    -0.435403   
O115     O      0.873200000000     0.351070000000     0.300230000000    -0.432781   
O116     O      0.852390000000     0.262570000000     0.245110000000    -0.431611   
O117     O      0.897410000000     0.257680000000     0.276660000000    -0.435633   
O118     O      0.918650000000     0.346260000000     0.331270000000    -0.433624   
O119     O      0.869650000000     0.270350000000     0.338710000000    -0.432805   
O120     O      0.946210000000     0.333340000000     0.269040000000    -0.423601   
O121     O      0.111730000000     0.422650000000     0.353430000000    -0.422082   
O122     O      0.194770000000     0.442920000000     0.288450000000    -0.431876   
O123     O      0.142940000000     0.467140000000     0.294310000000    -0.434121   
O124     O      0.163780000000     0.398240000000     0.347830000000    -0.433372   
O125     O      0.121470000000     0.350160000000     0.313610000000    -0.435986   
O126     O      0.104280000000     0.419780000000     0.257290000000    -0.436585   
O127     O      0.154410000000     0.393360000000     0.254460000000    -0.435263   
O128     O      0.070560000000     0.376040000000     0.316820000000    -0.424582   
O129     O      0.208680000000     0.192750000000     0.406530000000    -0.422498   
O130     O      0.127650000000     0.182580000000     0.469170000000    -0.435899   
O131     O      0.161580000000     0.223180000000     0.409130000000    -0.435732   
O132     O      0.174380000000     0.151920000000     0.467410000000    -0.433001   
O133     O      0.219500000000     0.199780000000     0.500080000000    -0.433321   
O134     O      0.203470000000     0.270550000000     0.444290000000    -0.436365   
O135     O      0.171130000000     0.228550000000     0.504680000000    -0.434101   
O136     O      0.251860000000     0.241650000000     0.439770000000    -0.422122   
O137     O      0.490120000000     0.352870000000     0.513230000000    -0.422448   
O138     O      0.570280000000     0.419210000000     0.447930000000    -0.43186    
O139     O      0.540190000000     0.428840000000     0.510470000000    -0.432767   
O140     O      0.520170000000     0.343390000000     0.451140000000    -0.433933   
O141     O      0.479360000000     0.353130000000     0.417430000000    -0.435446   
O142     O      0.495890000000     0.435590000000     0.479620000000    -0.434852   
O143     O      0.527770000000     0.429280000000     0.417520000000    -0.435489   
O144     O      0.446880000000     0.359400000000     0.479940000000    -0.42373    
O145     O      0.583020000000     0.670000000000     0.583560000000    -0.42278    
O146     O      0.497560000000     0.603170000000     0.643750000000    -0.432645   
O147     O      0.548190000000     0.679410000000     0.642210000000    -0.434882   
O148     O      0.532470000000     0.594280000000     0.585050000000    -0.4373     
O149     O      0.572320000000     0.585520000000     0.621000000000    -0.431653   
O150     O      0.587660000000     0.670700000000     0.678900000000    -0.434376   
O151     O      0.537700000000     0.595200000000     0.680180000000    -0.435902   
O152     O      0.623040000000     0.661570000000     0.619940000000    -0.423214   
O153     O      0.791890000000     0.767710000000     0.692120000000    -0.421898   
O154     O      0.866030000000     0.778680000000     0.620390000000    -0.434408   
O155     O      0.817480000000     0.806140000000     0.628620000000    -0.435053   
O156     O      0.840770000000     0.739940000000     0.683760000000    -0.433935   
O157     O      0.795060000000     0.690020000000     0.653800000000    -0.435775   
O158     O      0.771250000000     0.756100000000     0.599020000000    -0.432446   
O159     O      0.820480000000     0.728310000000     0.590640000000    -0.431242   
O160     O      0.745970000000     0.717500000000     0.662220000000    -0.4227     
O161     O      0.889590000000     0.541280000000     0.753870000000    -0.422309   
O162     O      0.799830000000     0.522390000000     0.808140000000    -0.432966   
O163     O      0.838520000000     0.566970000000     0.751450000000    -0.436523   
O164     O      0.851010000000     0.496320000000     0.810850000000    -0.432867   
O165     O      0.887530000000     0.543110000000     0.849310000000    -0.432903   
O166     O      0.875720000000     0.613980000000     0.789290000000    -0.436243   
O167     O      0.837140000000     0.569100000000     0.846330000000    -0.43734    
O168     O      0.926790000000     0.588160000000     0.792160000000    -0.421677   
O169     O      0.136950000000     0.690920000000     0.841960000000    -0.422501   
O170     O      0.225500000000     0.755380000000     0.783970000000    -0.43217    
O171     O      0.189620000000     0.766290000000     0.841300000000    -0.434882   
O172     O      0.172850000000     0.680240000000     0.784930000000    -0.435214   
O173     O      0.137810000000     0.692290000000     0.745450000000    -0.434149   
O174     O      0.150390000000     0.775420000000     0.804820000000    -0.432829   
O175     O      0.188360000000     0.768010000000     0.747810000000    -0.434934   
O176     O      0.099190000000     0.699660000000     0.802820000000    -0.422742   
O177     O      0.445020000000     0.095870000000     0.013350000000    -0.421473   
O178     O      0.530940000000     0.117860000000     0.951580000000    -0.431464   
O179     O      0.477110000000     0.140070000000     0.954320000000    -0.433492   
O180     O      0.498800000000     0.073430000000     0.010880000000    -0.43198    
O181     O      0.458540000000     0.024580000000     0.976250000000    -0.436329   
O182     O      0.440600000000     0.091930000000     0.917140000000    -0.43734    
O183     O      0.492650000000     0.067600000000     0.917370000000    -0.435578   
O184     O      0.405960000000     0.048410000000     0.976420000000    -0.425415   
O185     O      0.228000000000     0.010030000000     0.903690000000    -0.423042   
O186     O      0.158030000000     0.945460000000     0.976670000000    -0.436115   
O187     O      0.203160000000     0.020900000000     0.968870000000    -0.434261   
O188     O      0.182510000000     0.933760000000     0.911810000000    -0.432661   
O189     O      0.230690000000     0.930990000000     0.939630000000    -0.4356     
O190     O      0.251890000000     0.018480000000     0.996100000000    -0.433487   
O191     O      0.206110000000     0.942140000000     0.004260000000    -0.43205    
O192     O      0.276410000000     0.007090000000     0.931290000000    -0.423886   
O193     O      0.653210000000     0.535750000000     0.004120000000    -0.42279    
O194     O      0.585930000000     0.450560000000     0.944740000000    -0.432866   
O195     O      0.662740000000     0.500770000000     0.946210000000    -0.437316   
O196     O      0.576390000000     0.485600000000     0.003130000000    -0.436841   
O197     O      0.568150000000     0.525610000000     0.967720000000    -0.431872   
O198     O      0.652070000000     0.537180000000     0.907790000000    -0.433352   
O199     O      0.574620000000     0.488810000000     0.909550000000    -0.434705   
O200     O      0.645490000000     0.574550000000     0.966150000000    -0.422862   
O201     O      0.834860000000     0.816540000000     0.908880000000    -0.422023   
O202     O      0.838400000000     0.890570000000     0.975540000000    -0.434048   
O203     O      0.870140000000     0.845450000000     0.973400000000    -0.43344    
O204     O      0.802740000000     0.861860000000     0.911140000000    -0.432484   
O205     O      0.751810000000     0.816360000000     0.940440000000    -0.436833   
O206     O      0.818930000000     0.799520000000     0.002190000000    -0.433048   
O207     O      0.786880000000     0.845230000000     0.004480000000    -0.431481   
O208     O      0.783540000000     0.770890000000     0.938040000000    -0.422554   
O209     O      0.672980000000     0.113670000000     0.748340000000    -0.422202   
O210     O      0.744960000000     0.192160000000     0.811160000000    -0.435246   
O211     O      0.750740000000     0.159600000000     0.749740000000    -0.435636   
O212     O      0.667150000000     0.146470000000     0.810460000000    -0.433078   
O213     O      0.671280000000     0.101250000000     0.841390000000    -0.434607   
O214     O      0.757930000000     0.117880000000     0.783510000000    -0.434371   
O215     O      0.748750000000     0.148640000000     0.845340000000    -0.433975   
O216     O      0.680380000000     0.070520000000     0.779840000000    -0.422083   
O217     O      0.602270000000     0.905000000000     0.838810000000    -0.422834   
O218     O      0.577990000000     0.816340000000     0.782500000000    -0.432551   
O219     O      0.625930000000     0.852950000000     0.838190000000    -0.438223   
O220     O      0.553900000000     0.868620000000     0.783100000000    -0.434902   
O221     O      0.600350000000     0.903950000000     0.743460000000    -0.435273   
O222     O      0.672840000000     0.888770000000     0.799270000000    -0.433764   
O223     O      0.624390000000     0.852380000000     0.743110000000    -0.43693    
O224     O      0.648960000000     0.940910000000     0.799420000000    -0.422218   
O225     O      0.996050000000     0.202860000000     0.676510000000    -0.421985   
O226     O      0.928430000000     0.116280000000     0.618780000000    -0.431738   
O227     O      0.005030000000     0.167790000000     0.618190000000    -0.434645   
O228     O      0.919350000000     0.151420000000     0.677410000000    -0.433969   
O229     O      0.909470000000     0.190430000000     0.642050000000    -0.434862   
O230     O      0.992020000000     0.202860000000     0.580170000000    -0.43544    
O231     O      0.915070000000     0.153350000000     0.583930000000    -0.434909   
O232     O      0.986370000000     0.240510000000     0.638680000000    -0.423228   
O233     O      0.143240000000     0.466730000000     0.585640000000    -0.42281    
O234     O      0.157720000000     0.551850000000     0.642750000000    -0.433045   
O235     O      0.185840000000     0.502820000000     0.644680000000    -0.434423   
O236     O      0.115500000000     0.515580000000     0.583840000000    -0.438111   
O237     O      0.066480000000     0.476610000000     0.619400000000    -0.436596   
O238     O      0.137070000000     0.464370000000     0.680910000000    -0.433206   
O239     O      0.109060000000     0.512700000000     0.678710000000    -0.43705    
O240     O      0.094330000000     0.427680000000     0.621630000000    -0.421836   
O241     O      0.915420000000     0.559110000000     0.511270000000    -0.422279   
O242     O      0.898680000000     0.478620000000     0.446090000000    -0.431207   
O243     O      0.940320000000     0.507980000000     0.507860000000    -0.434139   
O244     O      0.873980000000     0.529820000000     0.450050000000    -0.435683   
O245     O      0.924260000000     0.568670000000     0.415530000000    -0.43734    
O246     O      0.991160000000     0.550100000000     0.475940000000    -0.436604   
O247     O      0.950930000000     0.518970000000     0.414560000000    -0.434565   
O248     O      0.965020000000     0.600280000000     0.477100000000    -0.424967   
O249     O      0.999900000000     0.775650000000     0.406070000000    -0.42284    
O250     O      0.062820000000     0.850980000000     0.475910000000    -0.435424   
O251     O      0.076700000000     0.824810000000     0.413230000000    -0.432923   
O252     O      0.986760000000     0.802150000000     0.469040000000    -0.434097   
O253     O      0.992980000000     0.757980000000     0.499690000000    -0.432178   
O254     O      0.083300000000     0.781160000000     0.444280000000    -0.434464   
O255     O      0.069970000000     0.807480000000     0.506790000000    -0.431873   
O256     O      0.006630000000     0.731810000000     0.437040000000    -0.423895   
O257     O      0.469440000000     0.125600000000     0.248450000000    -0.422324   
O258     O      0.489910000000     0.211910000000     0.306790000000    -0.432688   
O259     O      0.514640000000     0.160240000000     0.306740000000    -0.432511   
O260     O      0.445010000000     0.177210000000     0.248650000000    -0.435668   
O261     O      0.396330000000     0.139590000000     0.285180000000    -0.43561    
O262     O      0.466170000000     0.123330000000     0.343950000000    -0.43586    
O263     O      0.441510000000     0.174200000000     0.343680000000    -0.437144   
O264     O      0.420900000000     0.087980000000     0.285470000000    -0.422493   
O265     O      0.327460000000     0.879310000000     0.345190000000    -0.421946   
O266     O      0.264480000000     0.791770000000     0.286580000000    -0.431734   
O267     O      0.340160000000     0.845810000000     0.287560000000    -0.43328    
O268     O      0.251520000000     0.825300000000     0.344450000000    -0.432876   
O269     O      0.240270000000     0.862840000000     0.308300000000    -0.434167   
O270     O      0.325970000000     0.879420000000     0.248800000000    -0.432387   
O271     O      0.249750000000     0.827230000000     0.250850000000    -0.434649   
O272     O      0.316490000000     0.915540000000     0.306630000000    -0.42181    
O273     O      0.244610000000     0.226030000000     0.181830000000    -0.422159   
O274     O      0.229170000000     0.146500000000     0.115990000000    -0.431667   
O275     O      0.270550000000     0.175660000000     0.177890000000    -0.432897   
O276     O      0.203370000000     0.196780000000     0.120390000000    -0.43431    
O277     O      0.253460000000     0.236360000000     0.086070000000    -0.435123   
O278     O      0.321210000000     0.218450000000     0.146240000000    -0.434396   
O279     O      0.281220000000     0.187590000000     0.084670000000    -0.434465   
O280     O      0.294030000000     0.267900000000     0.147930000000    -0.424977   
O281     O      0.332100000000     0.444910000000     0.075830000000    -0.422602   
O282     O      0.398950000000     0.523660000000     0.141150000000    -0.434912   
O283     O      0.409190000000     0.494650000000     0.078440000000    -0.43188    
O284     O      0.322620000000     0.474140000000     0.138790000000    -0.433176   
O285     O      0.331180000000     0.431540000000     0.169780000000    -0.435312   
O286     O      0.417830000000     0.452630000000     0.110180000000    -0.437992   
O287     O      0.408290000000     0.481800000000     0.172560000000    -0.432498   
O288     O      0.341110000000     0.402730000000     0.107280000000    -0.424569   


