data_structure

_audit_creation_method RASPA-1.0
_audit_creation_date 2023-6-5
_audit_author_name 'Poobodin Mano'

_cell_length_a    35.6307
_cell_length_b    35.6277
_cell_length_c    21.2452
_cell_angle_alpha 89.981
_cell_angle_beta  90.019
_cell_angle_gamma 119.978
_cell_volume      23361.5

_symmetry_cell_setting          triclinic
_symmetry_space_group_name_Hall 'P 1'
_symmetry_space_group_name_H-M  'P 1'
_symmetry_Int_Tables_number     1

_symmetry_equiv_pos_as_xyz 'x,y,z'

loop_
_atom_site_label
_atom_site_type_symbol
_atom_site_fract_x
_atom_site_fract_y
_atom_site_fract_z
_atom_site_charge
C1       C      0.850840000000     0.668400000000     0.524130000000     0.379102   
C2       C      0.809080000000     0.663670000000     0.754370000000     0.37867    
C3       C      0.750770000000     0.628110000000     0.605320000000     0.378414   
C4       C      0.909160000000     0.703950000000     0.673170000000     0.377668   
C5       C      0.142430000000     0.814250000000     0.921020000000     0.379439   
C6       C      0.184160000000     0.851260000000     0.690750000000     0.378991   
C7       C      0.242500000000     0.874060000000     0.839800000000     0.378148   
C8       C      0.084100000000     0.791450000000     0.771970000000     0.378699   
C9       C      0.517520000000     0.001790000000     0.857440000000     0.378759   
C10      C      0.475750000000     0.997050000000     0.087680000000     0.378805   
C11      C      0.417440000000     0.961530000000     0.938630000000     0.378389   
C12      C      0.575830000000     0.037310000000     0.006510000000     0.378605   
C13      C      0.142420000000     0.330260000000     0.421090000000     0.379131   
C14      C      0.184140000000     0.334950000000     0.190840000000     0.37873    
C15      C      0.242480000000     0.370500000000     0.339860000000     0.378187   
C16      C      0.084080000000     0.294720000000     0.272070000000     0.378637   
C17      C      0.850810000000     0.184510000000     0.024260000000     0.379275   
C18      C      0.809060000000     0.147500000000     0.254520000000     0.379106   
C19      C      0.750740000000     0.124730000000     0.105450000000     0.378445   
C20      C      0.909120000000     0.207280000000     0.173310000000     0.377892   
C21      C      0.517530000000     0.517800000000     0.357360000000     0.379013   
C22      C      0.475780000000     0.480800000000     0.587610000000     0.379107   
C23      C      0.417460000000     0.457990000000     0.438570000000     0.378301   
C24      C      0.575850000000     0.540610000000     0.506410000000     0.378103   
C25      C      0.144700000000     0.334990000000     0.690830000000     0.379051   
C26      C      0.181740000000     0.330210000000     0.921100000000     0.379252   
C27      C      0.204530000000     0.294710000000     0.772050000000     0.378524   
C28      C      0.121910000000     0.370500000000     0.839870000000     0.378071   
C29      C      0.332300000000     0.147490000000     0.754250000000     0.379107   
C30      C      0.327540000000     0.184530000000     0.523980000000     0.37891    
C31      C      0.292000000000     0.207300000000     0.673010000000     0.378301   
C32      C      0.367830000000     0.124720000000     0.605230000000     0.378551   
C33      C      0.994210000000     0.517810000000     0.857500000000     0.378123   
C34      C      0.998940000000     0.480770000000     0.087780000000     0.378187   
C35      C      0.034460000000     0.457970000000     0.938760000000     0.379533   
C36      C      0.958690000000     0.540620000000     0.006510000000     0.377792   
C37      C      0.661000000000     0.851270000000     0.190870000000     0.378687   
C38      C      0.665760000000     0.814230000000     0.421150000000     0.379118   
C39      C      0.701270000000     0.791430000000     0.272120000000     0.378254   
C40      C      0.625490000000     0.874070000000     0.339900000000     0.378268   
C41      C      0.848490000000     0.663660000000     0.254390000000     0.378945   
C42      C      0.811450000000     0.668410000000     0.024110000000     0.379302   
C43      C      0.788690000000     0.703950000000     0.173140000000     0.378557   
C44      C      0.871270000000     0.628120000000     0.105370000000     0.37843    
C45      C      0.515190000000     0.997050000000     0.587710000000     0.378893   
C46      C      0.478160000000     0.001770000000     0.357420000000     0.379008   
C47      C      0.455350000000     0.037290000000     0.506420000000     0.378311   
C48      C      0.538010000000     0.961520000000     0.438710000000     0.378253   
C49      C      0.327560000000     0.145110000000     0.023990000000     0.379263   
C50      C      0.332290000000     0.186860000000     0.254240000000     0.379119   
C51      C      0.367840000000     0.245180000000     0.105200000000     0.378264   
C52      C      0.292010000000     0.086790000000     0.173040000000     0.378234   
C53      C      0.515180000000     0.520180000000     0.087620000000     0.378956   
C54      C      0.478180000000     0.478470000000     0.857350000000     0.378813   
C55      C      0.455360000000     0.420130000000     0.006380000000     0.378732   
C56      C      0.538000000000     0.578530000000     0.938590000000     0.378007   
C57      C      0.181730000000     0.853560000000     0.421010000000     0.378984   
C58      C      0.144720000000     0.811800000000     0.190760000000     0.37891    
C59      C      0.121920000000     0.753480000000     0.339820000000     0.378344   
C60      C      0.204520000000     0.911870000000     0.271950000000     0.378164   
C61      C      0.998940000000     0.520240000000     0.587760000000     0.3782     
C62      C      0.994210000000     0.478480000000     0.357520000000     0.378454   
C63      C      0.958690000000     0.420170000000     0.506570000000     0.377416   
C64      C      0.034460000000     0.578560000000     0.438710000000     0.379207   
C65      C      0.811470000000     0.145170000000     0.524260000000     0.378902   
C66      C      0.848480000000     0.186920000000     0.754520000000     0.379145   
C67      C      0.871260000000     0.245250000000     0.605470000000     0.378488   
C68      C      0.788700000000     0.086850000000     0.673300000000     0.378254   
C69      C      0.665730000000     0.853570000000     0.921140000000     0.37928    
C70      C      0.661030000000     0.811850000000     0.690880000000     0.379081   
C71      C      0.625490000000     0.753500000000     0.839900000000     0.378298   
C72      C      0.701270000000     0.911910000000     0.772120000000     0.37846    
C73      C      0.789010000000     0.020290000000     0.710230000000    -0.00297433 
C74      C      0.765830000000     0.041820000000     0.697540000000    -0.0890383  
C75      C      0.721130000000     0.020410000000     0.710340000000    -0.00207667 
C76      C      0.700120000000     0.978360000000     0.735060000000    -0.00204873 
C77      C      0.723420000000     0.956950000000     0.747900000000    -0.0891046  
C78      C      0.768110000000     0.978470000000     0.735250000000    -0.00292972 
C79      C      0.891850000000     0.353620000000     0.543490000000    -0.0031184  
C80      C      0.936540000000     0.375130000000     0.530820000000    -0.0887447  
C81      C      0.959840000000     0.353720000000     0.543670000000    -0.00232768 
C82      C      0.938830000000     0.311680000000     0.568410000000    -0.00200834 
C83      C      0.894130000000     0.290280000000     0.581230000000    -0.0892005  
C84      C      0.870950000000     0.311810000000     0.568520000000    -0.00286674 
C85      C      0.122210000000     0.686920000000     0.376770000000    -0.00309875 
C86      C      0.099040000000     0.708450000000     0.364070000000    -0.088768   
C87      C      0.054340000000     0.687060000000     0.376870000000    -0.00254997 
C88      C      0.033320000000     0.645010000000     0.401620000000    -0.000685277
C89      C      0.056610000000     0.623590000000     0.414470000000    -0.0895874  
C90      C      0.101310000000     0.645100000000     0.401810000000    -0.00262771 
C91      C      0.605590000000     0.644970000000     0.901610000000    -0.00213496 
C92      C      0.560890000000     0.623570000000     0.914390000000    -0.0889457  
C93      C      0.537720000000     0.645120000000     0.901710000000    -0.00304512 
C94      C      0.558640000000     0.686950000000     0.876730000000    -0.00293932 
C95      C      0.603340000000     0.708460000000     0.864100000000    -0.0890919  
C96      C      0.626620000000     0.687030000000     0.876920000000    -0.00200975 
C97      C      0.293130000000     0.020330000000     0.210140000000    -0.00204029 
C98      C      0.269850000000     0.041750000000     0.197280000000    -0.0889598  
C99      C      0.225160000000     0.020260000000     0.209940000000    -0.00291443 
C100     C      0.204240000000     0.978440000000     0.234980000000    -0.00298596 
C101     C      0.227410000000     0.956900000000     0.247700000000    -0.088928   
C102     C      0.272100000000     0.978280000000     0.234890000000    -0.00207832 
C103     C      0.366730000000     0.311660000000     0.068120000000    -0.00209663 
C104     C      0.390010000000     0.290220000000     0.080970000000    -0.0889333  
C105     C      0.434700000000     0.311720000000     0.068320000000    -0.00294768 
C106     C      0.455630000000     0.353540000000     0.043300000000    -0.00288355 
C107     C      0.432470000000     0.375090000000     0.030600000000    -0.0890736  
C108     C      0.387770000000     0.353710000000     0.043400000000    -0.00200048 
C109     C      0.624810000000     0.785620000000     0.521570000000    -0.00216166 
C110     C      0.664680000000     0.806930000000     0.489700000000    -0.0897271  
C111     C      0.703260000000     0.825310000000     0.524720000000    -0.00173504 
C112     C      0.702000000000     0.824220000000     0.590470000000    -0.00216151 
C113     C      0.662130000000     0.805640000000     0.622340000000    -0.0897146  
C114     C      0.623550000000     0.785440000000     0.587320000000    -0.00173691 
C115     C      0.624770000000     0.841250000000     0.021540000000    -0.00101545 
C116     C      0.664640000000     0.859800000000     0.989680000000    -0.0907263  
C117     C      0.703230000000     0.880000000000     0.024700000000    -0.0010198  
C118     C      0.701960000000     0.879840000000     0.090450000000    -0.00252432 
C119     C      0.662090000000     0.858560000000     0.122320000000    -0.0892778  
C120     C      0.623510000000     0.840190000000     0.087300000000    -0.00225491 
C121     C      0.700120000000     0.723850000000     0.235020000000    -0.00209994 
C122     C      0.723420000000     0.768550000000     0.247860000000    -0.0889949  
C123     C      0.768100000000     0.791720000000     0.235160000000    -0.00298438 
C124     C      0.789000000000     0.770800000000     0.210090000000    -0.00288996 
C125     C      0.765820000000     0.726110000000     0.197400000000    -0.0891097  
C126     C      0.721130000000     0.702830000000     0.210250000000    -0.00198623 
C127     C      0.626620000000     0.941650000000     0.376940000000    -0.00207047 
C128     C      0.603330000000     0.896950000000     0.364120000000    -0.0890397  
C129     C      0.558650000000     0.873780000000     0.376800000000    -0.00289483 
C130     C      0.537730000000     0.894680000000     0.401820000000    -0.00296463 
C131     C      0.560900000000     0.939380000000     0.414490000000    -0.0890644  
C132     C      0.605590000000     0.962670000000     0.401660000000    -0.00203696 
C133     C      0.956710000000     0.506760000000     0.753930000000    -0.00175642 
C134     C      0.995290000000     0.525130000000     0.788950000000    -0.0902288  
C135     C      0.035170000000     0.546440000000     0.757080000000    -0.00156835 
C136     C      0.036430000000     0.546640000000     0.691330000000    -0.00106727 
C137     C      0.997850000000     0.526440000000     0.656310000000    -0.0902743  
C138     C      0.957970000000     0.507870000000     0.688180000000    -0.0021775  
C139     C      0.957980000000     0.452210000000     0.188200000000    -0.00215059 
C140     C      0.997850000000     0.473480000000     0.156330000000    -0.0902601  
C141     C      0.036430000000     0.491850000000     0.191360000000    -0.00108721 
C142     C      0.035170000000     0.490780000000     0.257110000000    -0.0014744  
C143     C      0.995300000000     0.472250000000     0.288980000000    -0.0903508  
C144     C      0.956710000000     0.452060000000     0.253960000000    -0.00174342 
C145     C      0.891860000000     0.540350000000     0.043420000000    -0.00295953 
C146     C      0.936550000000     0.563510000000     0.030740000000    -0.0889457  
C147     C      0.959850000000     0.608210000000     0.043570000000    -0.00219202 
C148     C      0.938830000000     0.629240000000     0.068310000000    -0.00203999 
C149     C      0.894140000000     0.605950000000     0.081140000000    -0.0890899  
C150     C      0.870960000000     0.561260000000     0.068450000000    -0.00290576 
C151     C      0.291340000000     0.118880000000     0.854670000000    -0.00220136 
C152     C      0.331210000000     0.140180000000     0.822800000000    -0.0896652  
C153     C      0.369790000000     0.158550000000     0.857830000000    -0.00180463 
C154     C      0.368530000000     0.157460000000     0.923580000000    -0.00209751 
C155     C      0.328650000000     0.138900000000     0.955450000000    -0.0900246  
C156     C      0.290070000000     0.118700000000     0.920430000000    -0.00166429 
C157     C      0.290050000000     0.173460000000     0.420400000000    -0.00179223 
C158     C      0.328630000000     0.191830000000     0.455430000000    -0.0896043  
C159     C      0.368510000000     0.213110000000     0.423560000000    -0.0022174  
C160     C      0.369770000000     0.213280000000     0.357800000000    -0.00171813 
C161     C      0.331190000000     0.193080000000     0.322780000000    -0.089723   
C162     C      0.291320000000     0.174530000000     0.354640000000    -0.00211812 
C163     C      0.434690000000     0.125030000000     0.568330000000    -0.00288346 
C164     C      0.390000000000     0.101850000000     0.581010000000    -0.0891058  
C165     C      0.366720000000     0.057150000000     0.568180000000    -0.00203433 
C166     C      0.387760000000     0.036130000000     0.543450000000    -0.00209883 
C167     C      0.432450000000     0.059440000000     0.530630000000    -0.0889553  
C168     C      0.455610000000     0.104130000000     0.543310000000    -0.00299584 
C169     C      0.122200000000     0.437340000000     0.876810000000    -0.00317517 
C170     C      0.099030000000     0.392650000000     0.864110000000    -0.0887135  
C171     C      0.054340000000     0.369360000000     0.876950000000    -0.00258216 
C172     C      0.033320000000     0.390380000000     0.901690000000    -0.000675127
C173     C      0.056610000000     0.435080000000     0.914530000000    -0.0896919  
C174     C      0.101300000000     0.458250000000     0.901850000000    -0.00258834 
C175     C      0.204250000000     0.227880000000     0.735060000000    -0.00290915 
C176     C      0.227410000000     0.272570000000     0.747780000000    -0.0891401  
C177     C      0.272110000000     0.295870000000     0.734930000000    -0.00202561 
C178     C      0.293130000000     0.274860000000     0.710140000000    -0.00210015 
C179     C      0.269840000000     0.230170000000     0.697280000000    -0.0890074  
C180     C      0.225160000000     0.206990000000     0.709980000000    -0.00293132 
C181     C      0.488160000000     0.452200000000     0.688070000000    -0.00212909 
C182     C      0.469580000000     0.473500000000     0.656160000000    -0.0896937  
C183     C      0.449370000000     0.491890000000     0.691150000000    -0.0017637  
C184     C      0.449560000000     0.490820000000     0.756900000000    -0.00216008 
C185     C      0.470870000000     0.472250000000     0.788810000000    -0.0896441  
C186     C      0.489250000000     0.452030000000     0.753830000000    -0.00177521 
C187     C      0.505180000000     0.546430000000     0.256910000000    -0.00219133 
C188     C      0.523740000000     0.525100000000     0.288810000000    -0.0896132  
C189     C      0.543950000000     0.506700000000     0.253830000000    -0.00183437 
C190     C      0.543770000000     0.507800000000     0.188070000000    -0.00210634 
C191     C      0.522480000000     0.526390000000     0.156170000000    -0.0896254  
C192     C      0.504100000000     0.546610000000     0.191150000000    -0.00174111 
C193     C      0.838470000000     0.213150000000     0.923810000000    -0.00212717 
C194     C      0.857030000000     0.191820000000     0.955710000000    -0.090029   
C195     C      0.877230000000     0.173430000000     0.920720000000    -0.00170325 
C196     C      0.877070000000     0.174530000000     0.854970000000    -0.00221245 
C197     C      0.855780000000     0.193120000000     0.823060000000    -0.0897828  
C198     C      0.837400000000     0.213340000000     0.858050000000    -0.00180546 
C199     C      0.822540000000     0.118740000000     0.420720000000    -0.00183813 
C200     C      0.804160000000     0.138960000000     0.455710000000    -0.0896052  
C201     C      0.782840000000     0.157520000000     0.423810000000    -0.00219386 
C202     C      0.782650000000     0.158590000000     0.358050000000    -0.00169189 
C203     C      0.802860000000     0.140210000000     0.323070000000    -0.0897553  
C204     C      0.821440000000     0.118900000000     0.354970000000    -0.00212434 
C205     C      0.154730000000     0.371220000000     0.521500000000    -0.00208735 
C206     C      0.136190000000     0.331350000000     0.489630000000    -0.0896582  
C207     C      0.115990000000     0.292760000000     0.524650000000    -0.00173032 
C208     C      0.116140000000     0.294030000000     0.590410000000    -0.00208644 
C209     C      0.137420000000     0.333900000000     0.622280000000    -0.0896509  
C210     C      0.155790000000     0.372490000000     0.587260000000    -0.00178524 
C211     C      0.170670000000     0.292710000000     0.024670000000    -0.000986123
C212     C      0.189050000000     0.331300000000     0.989650000000    -0.0907231  
C213     C      0.210360000000     0.371170000000     0.021520000000    -0.000950274
C214     C      0.210550000000     0.372440000000     0.087270000000    -0.00231685 
C215     C      0.190340000000     0.333850000000     0.122290000000    -0.0892073  
C216     C      0.171760000000     0.293980000000     0.090430000000    -0.00251971 
C217     C      0.975690000000     0.206970000000     0.210220000000    -0.00452052 
C218     C      0.954160000000     0.230150000000     0.197530000000    -0.088115   
C219     C      0.975570000000     0.274860000000     0.210330000000    -0.00365035 
C220     C      0.017620000000     0.295870000000     0.235030000000    -0.000495408
C221     C      0.039040000000     0.272570000000     0.247860000000    -0.0898097  
C222     C      0.017510000000     0.227870000000     0.235220000000    -0.00138138 
C223     C      0.308950000000     0.369360000000     0.376890000000    -0.00211676 
C224     C      0.287530000000     0.392650000000     0.364060000000    -0.0888869  
C225     C      0.309050000000     0.437360000000     0.376680000000    -0.00303155 
C226     C      0.350880000000     0.458270000000     0.401670000000    -0.00291934 
C227     C      0.372410000000     0.435100000000     0.414360000000    -0.0889732  
C228     C      0.351010000000     0.390390000000     0.401580000000    -0.0020724  
C229     C      0.505210000000     0.960830000000     0.757040000000    -0.00216273 
C230     C      0.523740000000     0.000700000000     0.788900000000    -0.0896035  
C231     C      0.543930000000     0.039290000000     0.753880000000    -0.00182177 
C232     C      0.543770000000     0.038020000000     0.688130000000    -0.00212474 
C233     C      0.522490000000     0.998150000000     0.656260000000    -0.0896492  
C234     C      0.504130000000     0.959560000000     0.691280000000    -0.00178706 
C235     C      0.449360000000     0.959550000000     0.191240000000    -0.00180979 
C236     C      0.469550000000     0.998140000000     0.156230000000    -0.0895237  
C237     C      0.488110000000     0.038010000000     0.188100000000    -0.00220703 
C238     C      0.489210000000     0.039270000000     0.253860000000    -0.00171574 
C239     C      0.470850000000     0.000690000000     0.288870000000    -0.0896748  
C240     C      0.449540000000     0.960810000000     0.257000000000    -0.00213278 
C241     C      0.642260000000     0.036150000000     0.043620000000    -0.00196951 
C242     C      0.620850000000     0.059450000000     0.030770000000    -0.0891226  
C243     C      0.642370000000     0.104140000000     0.043440000000    -0.00283394 
C244     C      0.684180000000     0.125040000000     0.068490000000    -0.00295241 
C245     C      0.705710000000     0.101860000000     0.081200000000    -0.0890137  
C246     C      0.684300000000     0.057160000000     0.068380000000    -0.00205324 
C247     C      0.171760000000     0.879840000000     0.590300000000    -0.00213336 
C248     C      0.190360000000     0.858550000000     0.622210000000    -0.0897212  
C249     C      0.210570000000     0.840170000000     0.587210000000    -0.00166885 
C250     C      0.210380000000     0.841240000000     0.521460000000    -0.00221229 
C251     C      0.189040000000     0.859790000000     0.489560000000    -0.0895984  
C252     C      0.170660000000     0.880000000000     0.524540000000    -0.00175206 
C253     C      0.115990000000     0.825320000000     0.024540000000    -0.000923839
C254     C      0.136200000000     0.806930000000     0.989560000000    -0.0907504  
C255     C      0.154750000000     0.785590000000     0.021460000000    -0.000991493
C256     C      0.155810000000     0.785400000000     0.087220000000    -0.00221199 
C257     C      0.137430000000     0.805610000000     0.122210000000    -0.0892726  
C258     C      0.116140000000     0.824210000000     0.090300000000    -0.00251096 
C259     C      0.309070000000     0.873770000000     0.876720000000    -0.00297574 
C260     C      0.287530000000     0.896940000000     0.864030000000    -0.0889839  
C261     C      0.308930000000     0.941650000000     0.876830000000    -0.00215677 
C262     C      0.350980000000     0.962670000000     0.901550000000    -0.00202697 
C263     C      0.372400000000     0.939380000000     0.914390000000    -0.0890594  
C264     C      0.350890000000     0.894680000000     0.901730000000    -0.0029667  
C265     C      0.821430000000     0.704640000000     0.854780000000    -0.00234997 
C266     C      0.802870000000     0.664760000000     0.822910000000    -0.0895364  
C267     C      0.782680000000     0.626180000000     0.857940000000    -0.00186565 
C268     C      0.782860000000     0.627440000000     0.923690000000    -0.00206368 
C269     C      0.804150000000     0.667320000000     0.955560000000    -0.0900891  
C270     C      0.822520000000     0.705900000000     0.920540000000    -0.00160303 
C271     C      0.877250000000     0.705890000000     0.420570000000    -0.00181502 
C272     C      0.857060000000     0.667300000000     0.455580000000    -0.0896929  
C273     C      0.838510000000     0.627430000000     0.423710000000    -0.00213724 
C274     C      0.837430000000     0.626160000000     0.357960000000    -0.0018149  
C275     C      0.855800000000     0.664750000000     0.322940000000    -0.0896666  
C276     C      0.877090000000     0.704620000000     0.354810000000    -0.00218816 
C277     C      0.684240000000     0.561250000000     0.568410000000    -0.00291721 
C278     C      0.705730000000     0.605940000000     0.581070000000    -0.0890102  
C279     C      0.684310000000     0.629230000000     0.568210000000    -0.00205105 
C280     C      0.642260000000     0.608200000000     0.543460000000    -0.00214851 
C281     C      0.620880000000     0.563500000000     0.530660000000    -0.088921   
C282     C      0.642420000000     0.540330000000     0.543370000000    -0.00300667 
C283     C      0.975700000000     0.770810000000     0.710040000000    -0.00459659 
C284     C      0.954200000000     0.726110000000     0.697390000000    -0.0880484  
C285     C      0.975630000000     0.702820000000     0.710230000000    -0.00373571 
C286     C      0.017680000000     0.723860000000     0.734950000000    -0.000431906
C287     C      0.039070000000     0.768560000000     0.747740000000    -0.0899223  
C288     C      0.017520000000     0.791730000000     0.735050000000    -0.00136366 
H1       H      0.823510000000     0.035830000000     0.701320000000     0.0437155  
H2       H      0.702310000000     0.036100000000     0.701290000000     0.0460749  
H3       H      0.665630000000     0.962690000000     0.744080000000     0.0460597  
H4       H      0.787070000000     0.962920000000     0.744190000000     0.0437126  
H5       H      0.872900000000     0.369180000000     0.534530000000     0.0438233  
H6       H      0.994330000000     0.369400000000     0.534640000000     0.0458797  
H7       H      0.957640000000     0.295990000000     0.577480000000     0.0459171  
H8       H      0.836460000000     0.296270000000     0.577450000000     0.043757   
H9       H      0.156710000000     0.702450000000     0.367850000000     0.0438402  
H10      H      0.035530000000     0.702750000000     0.367810000000     0.0464202  
H11      H      0.998830000000     0.629350000000     0.410640000000     0.0452548  
H12      H      0.120260000000     0.629540000000     0.410760000000     0.0437319  
H13      H      0.624400000000     0.629270000000     0.910660000000     0.0460626  
H14      H      0.503230000000     0.629580000000     0.910610000000     0.0437886  
H15      H      0.539700000000     0.702510000000     0.867790000000     0.0437698  
H16      H      0.661120000000     0.702700000000     0.867920000000     0.0460338  
H17      H      0.327620000000     0.035990000000     0.201110000000     0.0461055  
H18      H      0.206210000000     0.035820000000     0.200980000000     0.0438363  
H19      H      0.169750000000     0.962910000000     0.243900000000     0.0438758  
H20      H      0.290910000000     0.962590000000     0.243950000000     0.0461073  
H21      H      0.332240000000     0.296000000000     0.077140000000     0.046135   
H22      H      0.453640000000     0.296150000000     0.077270000000     0.0438281  
H23      H      0.490120000000     0.369060000000     0.034390000000     0.0438579  
H24      H      0.368970000000     0.369410000000     0.034340000000     0.0461229  
H25      H      0.594540000000     0.771320000000     0.495790000000     0.0427372  
H26      H      0.734430000000     0.841800000000     0.501320000000     0.0422903  
H27      H      0.732270000000     0.840200000000     0.616250000000     0.0426994  
H28      H      0.592380000000     0.770750000000     0.610720000000     0.0423163  
H29      H      0.594500000000     0.825280000000     0.995770000000     0.0422648  
H30      H      0.734400000000     0.894660000000     0.001300000000     0.042232   
H31      H      0.732240000000     0.894130000000     0.116220000000     0.0428258  
H32      H      0.592340000000     0.823720000000     0.110700000000     0.0425073  
H33      H      0.665630000000     0.705050000000     0.244080000000     0.0461066  
H34      H      0.787050000000     0.826210000000     0.244100000000     0.0437672  
H35      H      0.823490000000     0.789750000000     0.201140000000     0.0437363  
H36      H      0.702310000000     0.668340000000     0.201200000000     0.0460921  
H37      H      0.661110000000     0.960460000000     0.367890000000     0.046078   
H38      H      0.539700000000     0.839280000000     0.367880000000     0.0437811  
H39      H      0.503240000000     0.875730000000     0.410760000000     0.0438012  
H40      H      0.624390000000     0.997160000000     0.410700000000     0.0460843  
H41      H      0.925540000000     0.490270000000     0.777330000000     0.0422828  
H42      H      0.065440000000     0.560730000000     0.782850000000     0.0426831  
H43      H      0.067600000000     0.561330000000     0.667920000000     0.0422603  
H44      H      0.927700000000     0.491890000000     0.662400000000     0.0427042  
H45      H      0.927710000000     0.437930000000     0.162430000000     0.0427385  
H46      H      0.067600000000     0.508310000000     0.167950000000     0.0423118  
H47      H      0.065440000000     0.506750000000     0.282880000000     0.0426806  
H48      H      0.925550000000     0.437400000000     0.277360000000     0.042314   
H49      H      0.872910000000     0.505850000000     0.034490000000     0.0438717  
H50      H      0.994340000000     0.627010000000     0.034520000000     0.0458946  
H51      H      0.957650000000     0.663730000000     0.077350000000     0.0459576  
H52      H      0.836470000000     0.542320000000     0.077390000000     0.0438135  
H53      H      0.261060000000     0.104590000000     0.828900000000     0.0427432  
H54      H      0.400960000000     0.175040000000     0.834420000000     0.0423146  
H55      H      0.398800000000     0.173440000000     0.949360000000     0.0426156  
H56      H      0.258900000000     0.104020000000     0.943830000000     0.042237   
H57      H      0.258880000000     0.156980000000     0.443800000000     0.0423632  
H58      H      0.398780000000     0.227400000000     0.449340000000     0.0427506  
H59      H      0.400940000000     0.227940000000     0.334410000000     0.0423196  
H60      H      0.261050000000     0.158560000000     0.328870000000     0.0427493  
H61      H      0.453630000000     0.159530000000     0.577260000000     0.0437666  
H62      H      0.332240000000     0.038330000000     0.577220000000     0.0460887  
H63      H      0.368960000000     0.001640000000     0.534410000000     0.0460962  
H64      H      0.490100000000     0.123090000000     0.534370000000     0.0437992  
H65      H      0.156700000000     0.456290000000     0.867870000000     0.0438336  
H66      H      0.035530000000     0.334870000000     0.867890000000     0.0464032  
H67      H      0.998830000000     0.371580000000     0.910740000000     0.0452254  
H68      H      0.120250000000     0.492740000000     0.910790000000     0.0436889  
H69      H      0.169760000000     0.208930000000     0.744010000000     0.043817   
H70      H      0.290910000000     0.330360000000     0.743990000000     0.046064   
H71      H      0.327610000000     0.293680000000     0.701080000000     0.0460839  
H72      H      0.206210000000     0.172490000000     0.701020000000     0.04381    
H73      H      0.504140000000     0.437890000000     0.662320000000     0.0427191  
H74      H      0.434680000000     0.508380000000     0.667720000000     0.0423279  
H75      H      0.435260000000     0.506810000000     0.782650000000     0.0427263  
H76      H      0.505750000000     0.437340000000     0.777250000000     0.0423131  
H77      H      0.489210000000     0.560740000000     0.282660000000     0.0427609  
H78      H      0.558620000000     0.490200000000     0.277260000000     0.0423636  
H79      H      0.558060000000     0.491800000000     0.162330000000     0.0427516  
H80      H      0.487620000000     0.561310000000     0.167720000000     0.0423675  
H81      H      0.822490000000     0.227450000000     0.949560000000     0.0426211  
H82      H      0.891910000000     0.156920000000     0.944150000000     0.0421264  
H83      H      0.891360000000     0.158530000000     0.829220000000     0.0426229  
H84      H      0.820920000000     0.228040000000     0.834630000000     0.0422966  
H85      H      0.839040000000     0.104060000000     0.444150000000     0.0422892  
H86      H      0.768540000000     0.173510000000     0.449560000000     0.0427442  
H87      H      0.767950000000     0.175080000000     0.334630000000     0.0423081  
H88      H      0.837430000000     0.104600000000     0.329220000000     0.0426646  
H89      H      0.170710000000     0.401500000000     0.495730000000     0.0427387  
H90      H      0.101330000000     0.261590000000     0.501250000000     0.0424162  
H91      H      0.101850000000     0.263750000000     0.616180000000     0.0428041  
H92      H      0.172260000000     0.403650000000     0.610650000000     0.0423632  
H93      H      0.154180000000     0.261540000000     0.001270000000     0.0423081  
H94      H      0.224660000000     0.401450000000     0.995740000000     0.0422524  
H95      H      0.225240000000     0.403610000000     0.110670000000     0.0425338  
H96      H      0.155780000000     0.263700000000     0.116200000000     0.0429002  
H97      H      0.960140000000     0.172470000000     0.201320000000     0.0440142  
H98      H      0.959890000000     0.293680000000     0.201280000000     0.04634    
H99      H      0.033310000000     0.330370000000     0.244040000000     0.0459011  
H100     H      0.033060000000     0.208910000000     0.244170000000     0.0435923  
H101     H      0.293280000000     0.334870000000     0.367890000000     0.0461109  
H102     H      0.293490000000     0.456310000000     0.367740000000     0.0438164  
H103     H      0.366420000000     0.492770000000     0.410560000000     0.0437801  
H104     H      0.366710000000     0.371580000000     0.410630000000     0.046083   
H105     H      0.489240000000     0.930550000000     0.782810000000     0.0427273  
H106     H      0.558590000000     0.070460000000     0.777280000000     0.0423283  
H107     H      0.558040000000     0.068300000000     0.662350000000     0.0427184  
H108     H      0.487670000000     0.928390000000     0.667880000000     0.0423306  
H109     H      0.434680000000     0.928380000000     0.167840000000     0.0423858  
H110     H      0.504080000000     0.068290000000     0.162330000000     0.0427753  
H111     H      0.505700000000     0.070440000000     0.277260000000     0.0423314  
H112     H      0.435260000000     0.930530000000     0.282770000000     0.0427374  
H113     H      0.626590000000     0.001650000000     0.034590000000     0.046107   
H114     H      0.626820000000     0.123100000000     0.034490000000     0.0438397  
H115     H      0.699720000000     0.159540000000     0.077420000000     0.0438228  
H116     H      0.699990000000     0.038340000000     0.077440000000     0.0461108  
H117     H      0.155770000000     0.894130000000     0.616050000000     0.0427814  
H118     H      0.225280000000     0.823690000000     0.610650000000     0.0423059  
H119     H      0.224680000000     0.825250000000     0.495720000000     0.0427563  
H120     H      0.154150000000     0.894670000000     0.501120000000     0.0423918  
H121     H      0.101320000000     0.841830000000     0.001120000000     0.0423318  
H122     H      0.170730000000     0.771290000000     0.995720000000     0.0422844  
H123     H      0.172280000000     0.770690000000     0.110650000000     0.0425298  
H124     H      0.101850000000     0.840200000000     0.116050000000     0.0429468  
H125     H      0.293540000000     0.839270000000     0.867800000000     0.0437669  
H126     H      0.293240000000     0.960460000000     0.867790000000     0.0460896  
H127     H      0.366650000000     0.997170000000     0.910580000000     0.0460272  
H128     H      0.366450000000     0.875730000000     0.910680000000     0.0437549  
H129     H      0.837410000000     0.734910000000     0.829000000000     0.0427087  
H130     H      0.768010000000     0.595000000000     0.834540000000     0.0423198  
H131     H      0.768570000000     0.597170000000     0.949470000000     0.0426112  
H132     H      0.839000000000     0.737080000000     0.943930000000     0.0421279  
H133     H      0.891920000000     0.737060000000     0.443970000000     0.0422528  
H134     H      0.822540000000     0.597150000000     0.449490000000     0.0427136  
H135     H      0.820950000000     0.594990000000     0.334560000000     0.0423315  
H136     H      0.891370000000     0.734900000000     0.329040000000     0.0426491  
H137     H      0.699800000000     0.542300000000     0.577370000000     0.0437695  
H138     H      0.699970000000     0.663720000000     0.577230000000     0.0460756  
H139     H      0.626570000000     0.627000000000     0.534400000000     0.0461031  
H140     H      0.626890000000     0.505830000000     0.534460000000     0.0437948  
H141     H      0.960130000000     0.789750000000     0.701100000000     0.0439993  
H142     H      0.959960000000     0.668330000000     0.701220000000     0.0463334  
H143     H      0.033380000000     0.705050000000     0.744000000000     0.0458479  
H144     H      0.033050000000     0.826230000000     0.743960000000     0.0435498  
Ni1      Ni     0.827830000000     0.631680000000     0.644900000000     0.994543   
Ni2      Ni     0.832090000000     0.700370000000     0.633590000000     0.994723   
Ni3      Ni     0.165470000000     0.800560000000     0.800280000000     0.994874   
Ni4      Ni     0.161130000000     0.864950000000     0.811500000000     0.994841   
Ni5      Ni     0.494490000000     0.965070000000     0.978210000000     0.994056   
Ni6      Ni     0.498780000000     0.033770000000     0.966920000000     0.994381   
Ni7      Ni     0.161140000000     0.298250000000     0.311620000000     0.994641   
Ni8      Ni     0.165420000000     0.366960000000     0.300310000000     0.994975   
Ni9      Ni     0.832080000000     0.133800000000     0.133770000000     0.994689   
Ni10     Ni     0.827780000000     0.198210000000     0.145000000000     0.994673   
Ni11     Ni     0.498820000000     0.467100000000     0.466880000000     0.994746   
Ni12     Ni     0.494480000000     0.531500000000     0.478090000000     0.994991   
Ni13     Ni     0.195410000000     0.366950000000     0.800340000000     0.994861   
Ni14     Ni     0.131030000000     0.298250000000     0.811590000000     0.995068   
Ni15     Ni     0.364260000000     0.198210000000     0.644750000000     0.994988   
Ni16     Ni     0.295580000000     0.133810000000     0.633480000000     0.994825   
Ni17     Ni     0.030930000000     0.531480000000     0.978270000000     0.994844   
Ni18     Ni     0.962230000000     0.467100000000     0.967010000000     0.993869   
Ni19     Ni     0.697730000000     0.864940000000     0.311640000000     0.995063   
Ni20     Ni     0.629030000000     0.800560000000     0.300380000000     0.995211   
Ni21     Ni     0.862170000000     0.700380000000     0.133620000000     0.994868   
Ni22     Ni     0.797780000000     0.631690000000     0.144880000000     0.995023   
Ni23     Ni     0.528860000000     0.033760000000     0.466930000000     0.994857   
Ni24     Ni     0.464490000000     0.965060000000     0.478200000000     0.994966   
Ni25     Ni     0.295580000000     0.163860000000     0.133460000000     0.995073   
Ni26     Ni     0.364270000000     0.168110000000     0.144770000000     0.995045   
Ni27     Ni     0.464490000000     0.501500000000     0.978090000000     0.994291   
Ni28     Ni     0.528870000000     0.497150000000     0.966880000000     0.994459   
Ni29     Ni     0.131030000000     0.834850000000     0.311490000000     0.994903   
Ni30     Ni     0.195420000000     0.830510000000     0.300280000000     0.99486    
Ni31     Ni     0.962230000000     0.497220000000     0.466990000000     0.994222   
Ni32     Ni     0.030930000000     0.501500000000     0.478290000000     0.995487   
Ni33     Ni     0.797780000000     0.168210000000     0.645000000000     0.994795   
Ni34     Ni     0.862180000000     0.163890000000     0.633780000000     0.99467    
Ni35     Ni     0.629030000000     0.830570000000     0.800360000000     0.994935   
Ni36     Ni     0.697730000000     0.834850000000     0.811660000000     0.994783   
O1       O      0.843920000000     0.635810000000     0.558050000000    -0.435044   
O2       O      0.811650000000     0.631900000000     0.730840000000    -0.434472   
O3       O      0.768440000000     0.605550000000     0.619720000000    -0.436663   
O4       O      0.887740000000     0.662490000000     0.669320000000    -0.432814   
O5       O      0.891480000000     0.726510000000     0.658770000000    -0.436489   
O6       O      0.772190000000     0.669560000000     0.609170000000    -0.433139   
O7       O      0.816000000000     0.696250000000     0.720440000000    -0.43497    
O8       O      0.848280000000     0.700150000000     0.547650000000    -0.434806   
O9       O      0.149380000000     0.788600000000     0.887130000000    -0.435171   
O10      O      0.181640000000     0.816960000000     0.714330000000    -0.434658   
O11      O      0.224850000000     0.833830000000     0.825450000000    -0.43663    
O12      O      0.105560000000     0.771450000000     0.775860000000    -0.433116   
O13      O      0.101750000000     0.831680000000     0.786330000000    -0.436688   
O14      O      0.221040000000     0.894070000000     0.835910000000    -0.43297    
O15      O      0.177210000000     0.876910000000     0.724640000000    -0.434986   
O16      O      0.144960000000     0.848550000000     0.897450000000    -0.434869   
O17      O      0.510590000000     0.969200000000     0.891360000000    -0.434881   
O18      O      0.478300000000     0.965280000000     0.064150000000    -0.434325   
O19      O      0.435100000000     0.938960000000     0.953020000000    -0.436625   
O20      O      0.554390000000     0.995850000000     0.002640000000    -0.432803   
O21      O      0.558170000000     0.059880000000     0.992110000000    -0.43691    
O22      O      0.438880000000     0.002980000000     0.942480000000    -0.433105   
O23      O      0.482680000000     0.029640000000     0.053770000000    -0.434757   
O24      O      0.514970000000     0.033560000000     0.880980000000    -0.434498   
O25      O      0.144970000000     0.298490000000     0.397570000000    -0.434607   
O26      O      0.177210000000     0.302370000000     0.224760000000    -0.434983   
O27      O      0.221050000000     0.329040000000     0.336020000000    -0.432939   
O28      O      0.101740000000     0.272140000000     0.286460000000    -0.436539   
O29      O      0.105520000000     0.336170000000     0.275910000000    -0.433183   
O30      O      0.224820000000     0.393070000000     0.325470000000    -0.436614   
O31      O      0.181590000000     0.366730000000     0.214370000000    -0.434497   
O32      O      0.149350000000     0.362840000000     0.387170000000    -0.435123   
O33      O      0.848270000000     0.150200000000     0.047820000000    -0.434661   
O34      O      0.815990000000     0.121850000000     0.220630000000    -0.435129   
O35      O      0.772180000000     0.104710000000     0.109350000000    -0.433119   
O36      O      0.891470000000     0.167050000000     0.158950000000    -0.436481   
O37      O      0.887680000000     0.227300000000     0.169420000000    -0.433036   
O38      O      0.768390000000     0.164950000000     0.119820000000    -0.436607   
O39      O      0.811590000000     0.181810000000     0.230950000000    -0.434616   
O40      O      0.843870000000     0.210170000000     0.058140000000    -0.434991   
O41      O      0.515000000000     0.483500000000     0.380930000000    -0.434702   
O42      O      0.482730000000     0.455150000000     0.553740000000    -0.435091   
O43      O      0.438920000000     0.437980000000     0.442460000000    -0.433038   
O44      O      0.558210000000     0.500380000000     0.492060000000    -0.436492   
O45      O      0.554380000000     0.560610000000     0.502520000000    -0.433028   
O46      O      0.435100000000     0.498210000000     0.452920000000    -0.436745   
O47      O      0.478300000000     0.515100000000     0.564040000000    -0.434725   
O48      O      0.510570000000     0.543450000000     0.391240000000    -0.435088   
O49      O      0.179000000000     0.366750000000     0.714390000000    -0.434635   
O50      O      0.207380000000     0.362800000000     0.887200000000    -0.435152   
O51      O      0.224530000000     0.336160000000     0.775930000000    -0.433221   
O52      O      0.162130000000     0.393070000000     0.825490000000    -0.436588   
O53      O      0.101910000000     0.329040000000     0.835990000000    -0.432995   
O54      O      0.164320000000     0.272140000000     0.786430000000    -0.43676    
O55      O      0.147440000000     0.298450000000     0.897540000000    -0.434757   
O56      O      0.119070000000     0.302400000000     0.724730000000    -0.435051   
O57      O      0.364050000000     0.181790000000     0.730710000000    -0.434722   
O58      O      0.360120000000     0.210170000000     0.557890000000    -0.435089   
O59      O      0.333450000000     0.227310000000     0.669140000000    -0.433201   
O60      O      0.390390000000     0.164940000000     0.619610000000    -0.43679    
O61      O      0.326390000000     0.104710000000     0.609090000000    -0.433284   
O62      O      0.269440000000     0.167080000000     0.658630000000    -0.436596   
O63      O      0.295780000000     0.150220000000     0.547530000000    -0.434569   
O64      O      0.299720000000     0.121840000000     0.720350000000    -0.435042   
O65      O      0.026790000000     0.543450000000     0.891400000000    -0.434377   
O66      O      0.030710000000     0.515070000000     0.064230000000    -0.433742   
O67      O      0.057040000000     0.498190000000     0.953140000000    -0.436942   
O68      O      0.000140000000     0.560610000000     0.002650000000    -0.432161   
O69      O      0.936120000000     0.500400000000     0.992140000000    -0.436718   
O70      O      0.993020000000     0.437970000000     0.942630000000    -0.433935   
O71      O      0.966360000000     0.455140000000     0.053870000000    -0.434747   
O72      O      0.962440000000     0.483510000000     0.881050000000    -0.434403   
O73      O      0.693590000000     0.876910000000     0.224780000000    -0.434965   
O74      O      0.697520000000     0.848530000000     0.397590000000    -0.434723   
O75      O      0.723840000000     0.831660000000     0.286490000000    -0.436712   
O76      O      0.666940000000     0.894060000000     0.336030000000    -0.433187   
O77      O      0.602920000000     0.833840000000     0.325530000000    -0.436719   
O78      O      0.659820000000     0.771440000000     0.275990000000    -0.433176   
O79      O      0.633180000000     0.788600000000     0.387240000000    -0.435177   
O80      O      0.629240000000     0.816960000000     0.214430000000    -0.434579   
O81      O      0.874140000000     0.696240000000     0.220480000000    -0.435107   
O82      O      0.845760000000     0.700170000000     0.047660000000    -0.434603   
O83      O      0.828900000000     0.726510000000     0.158760000000    -0.43684    
O84      O      0.891270000000     0.669570000000     0.109230000000    -0.433275   
O85      O      0.831050000000     0.605560000000     0.119740000000    -0.436721   
O86      O      0.768680000000     0.662500000000     0.169280000000    -0.433243   
O87      O      0.785810000000     0.635830000000     0.058020000000    -0.435066   
O88      O      0.814190000000     0.631900000000     0.230840000000    -0.434626   
O89      O      0.540830000000     0.029640000000     0.553800000000    -0.434977   
O90      O      0.512460000000     0.033540000000     0.380970000000    -0.434613   
O91      O      0.495570000000     0.059870000000     0.492050000000    -0.436698   
O92      O      0.558000000000     0.002980000000     0.442560000000    -0.433043   
O93      O      0.497790000000     0.938950000000     0.453070000000    -0.43662    
O94      O      0.435360000000     0.995840000000     0.502560000000    -0.433252   
O95      O      0.452530000000     0.969190000000     0.391330000000    -0.435098   
O96      O      0.480900000000     0.965280000000     0.564150000000    -0.434673   
O97      O      0.295800000000     0.147670000000     0.047520000000    -0.434614   
O98      O      0.299710000000     0.179950000000     0.220310000000    -0.435066   
O99      O      0.326390000000     0.223760000000     0.109040000000    -0.433119   
O100     O      0.269450000000     0.104470000000     0.158630000000    -0.436614   
O101     O      0.333460000000     0.108210000000     0.169180000000    -0.433134   
O102     O      0.390400000000     0.227500000000     0.119600000000    -0.436654   
O103     O      0.364040000000     0.184300000000     0.230710000000    -0.434774   
O104     O      0.360140000000     0.152020000000     0.057920000000    -0.435012   
O105     O      0.480890000000     0.517670000000     0.064050000000    -0.434418   
O106     O      0.452540000000     0.485430000000     0.891240000000    -0.435031   
O107     O      0.435370000000     0.441590000000     0.002500000000    -0.433057   
O108     O      0.497770000000     0.560890000000     0.952940000000    -0.436515   
O109     O      0.558000000000     0.557060000000     0.942480000000    -0.432977   
O110     O      0.495590000000     0.437760000000     0.992030000000    -0.436929   
O111     O      0.512480000000     0.480980000000     0.880920000000    -0.4345     
O112     O      0.540830000000     0.513230000000     0.053740000000    -0.434777   
O113     O      0.147430000000     0.851040000000     0.397440000000    -0.434585   
O114     O      0.119080000000     0.818760000000     0.224640000000    -0.435002   
O115     O      0.101920000000     0.774940000000     0.335920000000    -0.433007   
O116     O      0.164300000000     0.894240000000     0.286310000000    -0.436543   
O117     O      0.224530000000     0.890410000000     0.275850000000    -0.433055   
O118     O      0.162140000000     0.771120000000     0.325460000000    -0.436621   
O119     O      0.179020000000     0.814320000000     0.214330000000    -0.434583   
O120     O      0.207370000000     0.846600000000     0.387130000000    -0.435111   
O121     O      0.966360000000     0.513310000000     0.553840000000    -0.434952   
O122     O      0.962450000000     0.481030000000     0.381050000000    -0.434594   
O123     O      0.936120000000     0.437830000000     0.492170000000    -0.436481   
O124     O      0.993010000000     0.557120000000     0.442570000000    -0.433768   
O125     O      0.057040000000     0.560890000000     0.453110000000    -0.43672    
O126     O      0.000140000000     0.441600000000     0.502710000000    -0.432379   
O127     O      0.026790000000     0.485410000000     0.391440000000    -0.434565   
O128     O      0.030710000000     0.517690000000     0.564230000000    -0.43401    
O129     O      0.785820000000     0.152120000000     0.558140000000    -0.434991   
O130     O      0.814180000000     0.184390000000     0.730950000000    -0.434725   
O131     O      0.831040000000     0.227600000000     0.619830000000    -0.436705   
O132     O      0.768680000000     0.108300000000     0.669420000000    -0.433021   
O133     O      0.828920000000     0.104500000000     0.658940000000    -0.436699   
O134     O      0.891270000000     0.223800000000     0.609360000000    -0.433213   
O135     O      0.874130000000     0.179980000000     0.720630000000    -0.435203   
O136     O      0.845780000000     0.147710000000     0.547820000000    -0.434623   
O137     O      0.633150000000     0.846640000000     0.887220000000    -0.435214   
O138     O      0.629270000000     0.814400000000     0.714410000000    -0.434699   
O139     O      0.602920000000     0.771170000000     0.825510000000    -0.436629   
O140     O      0.659820000000     0.890470000000     0.775960000000    -0.433243   
O141     O      0.723840000000     0.894250000000     0.786510000000    -0.436748   
O142     O      0.666940000000     0.774940000000     0.836060000000    -0.433093   
O143     O      0.693610000000     0.818770000000     0.724810000000    -0.435087   
O144     O      0.697500000000     0.851020000000     0.897610000000    -0.434751   


