data_structure

_audit_creation_method RASPA-1.0
_audit_creation_date 2023-5-22
_audit_author_name 'Poobodin Mano'

_cell_length_a    37.3185
_cell_length_b    37.3324
_cell_length_c    37.3272
_cell_angle_alpha 90.0007
_cell_angle_beta  89.9998
_cell_angle_gamma 90.0013
_cell_volume      52003.9

_symmetry_cell_setting          triclinic
_symmetry_space_group_name_Hall 'P 1'
_symmetry_space_group_name_H-M  'P 1'
_symmetry_Int_Tables_number     1

_symmetry_equiv_pos_as_xyz 'x,y,z'

loop_
_atom_site_label
_atom_site_type_symbol
_atom_site_fract_x
_atom_site_fract_y
_atom_site_fract_z
_atom_site_charge
C1       C      0.812220000000     0.439560000000     0.880700000000     0.378553   
C2       C      0.880820000000     0.535430000000     0.812060000000     0.37862    
C3       C      0.812200000000     0.535420000000     0.880690000000     0.378566   
C4       C      0.880830000000     0.439570000000     0.812070000000     0.378629   
C5       C      0.730210000000     0.627870000000     0.973150000000     0.378631   
C6       C      0.661620000000     0.696490000000     0.069030000000     0.378594   
C7       C      0.730230000000     0.627860000000     0.069020000000     0.378587   
C8       C      0.661600000000     0.696490000000     0.973160000000     0.378521   
C9       C      0.569140000000     0.847100000000     0.812130000000     0.378761   
C10      C      0.473250000000     0.778510000000     0.880740000000     0.378513   
C11      C      0.473250000000     0.847120000000     0.812130000000     0.378632   
C12      C      0.569130000000     0.778490000000     0.880740000000     0.378326   
C13      C      0.730220000000     0.939530000000     0.661490000000     0.378751   
C14      C      0.661610000000     0.035380000000     0.730120000000     0.378558   
C15      C      0.730220000000     0.035390000000     0.661500000000     0.378515   
C16      C      0.661610000000     0.939530000000     0.730120000000     0.378563   
C17      C      0.973250000000     0.627890000000     0.730060000000     0.378509   
C18      C      0.069150000000     0.696490000000     0.661460000000     0.378423   
C19      C      0.069140000000     0.627890000000     0.730070000000     0.378442   
C20      C      0.973260000000     0.696490000000     0.661450000000     0.378504   
C21      C      0.812220000000     0.847130000000     0.473130000000     0.378734   
C22      C      0.880820000000     0.778500000000     0.568990000000     0.378453   
C23      C      0.812210000000     0.847120000000     0.569000000000     0.378645   
C24      C      0.880830000000     0.778510000000     0.473120000000     0.378559   
C25      C      0.473290000000     0.127870000000     0.812100000000     0.378702   
C26      C      0.569180000000     0.196480000000     0.880710000000     0.378506   
C27      C      0.569180000000     0.127860000000     0.812110000000     0.378609   
C28      C      0.473290000000     0.196490000000     0.880700000000     0.378285   
C29      C      0.730230000000     0.347120000000     0.069030000000     0.378545   
C30      C      0.661630000000     0.278490000000     0.973150000000     0.378551   
C31      C      0.730240000000     0.347110000000     0.973160000000     0.378546   
C32      C      0.661620000000     0.278490000000     0.069020000000     0.37861    
C33      C      0.812210000000     0.439570000000     0.161490000000     0.378651   
C34      C      0.880830000000     0.535420000000     0.230110000000     0.378609   
C35      C      0.812220000000     0.535420000000     0.161480000000     0.378609   
C36      C      0.880820000000     0.439570000000     0.230120000000     0.378585   
C37      C      0.973290000000     0.627870000000     0.312100000000     0.378798   
C38      C      0.069180000000     0.696480000000     0.380710000000     0.378577   
C39      C      0.069180000000     0.627850000000     0.312110000000     0.378537   
C40      C      0.973290000000     0.696490000000     0.380700000000     0.378417   
C41      C      0.230240000000     0.847110000000     0.473160000000     0.378444   
C42      C      0.161620000000     0.778490000000     0.569020000000     0.378656   
C43      C      0.230230000000     0.847110000000     0.569030000000     0.37853    
C44      C      0.161630000000     0.778490000000     0.473160000000     0.378729   
C45      C      0.312210000000     0.939570000000     0.661490000000     0.378576   
C46      C      0.380820000000     0.035430000000     0.730110000000     0.378502   
C47      C      0.312210000000     0.035420000000     0.661480000000     0.378516   
C48      C      0.380820000000     0.939570000000     0.730120000000     0.378517   
C49      C      0.730220000000     0.035460000000     0.380700000000     0.378271   
C50      C      0.661620000000     0.939600000000     0.312060000000     0.378625   
C51      C      0.730230000000     0.939600000000     0.380690000000     0.378467   
C52      C      0.661610000000     0.035450000000     0.312070000000     0.378499   
C53      C      0.473290000000     0.778500000000     0.161490000000     0.378727   
C54      C      0.569180000000     0.847120000000     0.230070000000     0.378674   
C55      C      0.569180000000     0.778500000000     0.161480000000     0.37847    
C56      C      0.473300000000     0.847120000000     0.230080000000     0.378758   
C57      C      0.230210000000     0.535460000000     0.880710000000     0.378616   
C58      C      0.161610000000     0.439600000000     0.812070000000     0.378637   
C59      C      0.230220000000     0.439600000000     0.880700000000     0.378586   
C60      C      0.161600000000     0.535460000000     0.812080000000     0.378596   
C61      C      0.380810000000     0.696490000000     0.069070000000     0.378459   
C62      C      0.312200000000     0.627880000000     0.973190000000     0.378527   
C63      C      0.380800000000     0.696510000000     0.973200000000     0.37849    
C64      C      0.312200000000     0.627860000000     0.069060000000     0.378445   
C65      C      0.230220000000     0.535390000000     0.161490000000     0.378711   
C66      C      0.161600000000     0.439520000000     0.230110000000     0.37865    
C67      C      0.230220000000     0.439530000000     0.161480000000     0.37855    
C68      C      0.161610000000     0.535380000000     0.230120000000     0.378548   
C69      C      0.312210000000     0.347110000000     0.069000000000     0.37862    
C70      C      0.380820000000     0.278510000000     0.973120000000     0.378625   
C71      C      0.312210000000     0.347130000000     0.973130000000     0.378393   
C72      C      0.380820000000     0.278490000000     0.068980000000     0.378491   
C73      C      0.569150000000     0.196490000000     0.161450000000     0.378668   
C74      C      0.473250000000     0.127880000000     0.230050000000     0.378707   
C75      C      0.473260000000     0.196480000000     0.161440000000     0.378504   
C76      C      0.569140000000     0.127880000000     0.230060000000     0.378565   
C77      C      0.973290000000     0.278500000000     0.661480000000     0.378415   
C78      C      0.069180000000     0.347130000000     0.730070000000     0.378519   
C79      C      0.069170000000     0.278500000000     0.661470000000     0.378641   
C80      C      0.973290000000     0.347120000000     0.730080000000     0.378514   
C81      C      0.812200000000     0.127880000000     0.473190000000     0.378739   
C82      C      0.880810000000     0.196490000000     0.569060000000     0.37856    
C83      C      0.812200000000     0.127860000000     0.569060000000     0.378636   
C84      C      0.880810000000     0.196500000000     0.473200000000     0.3784     
C85      C      0.230210000000     0.127860000000     0.473150000000     0.37874    
C86      C      0.161610000000     0.196480000000     0.569020000000     0.378744   
C87      C      0.230220000000     0.127860000000     0.569020000000     0.378488   
C88      C      0.161600000000     0.196480000000     0.473160000000     0.37854    
C89      C      0.312220000000     0.939560000000     0.380700000000     0.378504   
C90      C      0.380820000000     0.035420000000     0.312060000000     0.378574   
C91      C      0.312200000000     0.035420000000     0.380690000000     0.378412   
C92      C      0.380830000000     0.939570000000     0.312070000000     0.378517   
C93      C      0.973240000000     0.278500000000     0.380730000000     0.378526   
C94      C      0.069140000000     0.347090000000     0.312120000000     0.378693   
C95      C      0.069130000000     0.278480000000     0.380730000000     0.378471   
C96      C      0.973250000000     0.347110000000     0.312120000000     0.378344   
C97      C      0.116930000000     0.200050000000     0.423360000000    -0.00142806 
C98      C      0.140350000000     0.217380000000     0.447190000000    -0.0893151  
C99      C      0.141710000000     0.254990000000     0.447450000000    -0.00172466 
C100     C      0.118950000000     0.274910000000     0.425380000000    -0.00134071 
C101     C      0.095110000000     0.257580000000     0.401970000000    -0.089375   
C102     C      0.094840000000     0.219980000000     0.400610000000    -0.0016458  
C103     C      0.233760000000     0.083200000000     0.423360000000    -0.00132487 
C104     C      0.251110000000     0.106610000000     0.447170000000    -0.089355   
C105     C      0.288730000000     0.107970000000     0.447420000000    -0.00164604 
C106     C      0.308650000000     0.085210000000     0.425340000000    -0.00138719 
C107     C      0.291300000000     0.061390000000     0.401940000000    -0.0892491  
C108     C      0.253680000000     0.061120000000     0.400600000000    -0.00170055 
C109     C      0.925450000000     0.200070000000     0.423380000000    -0.00139346 
C110     C      0.902050000000     0.217400000000     0.447220000000    -0.0892279  
C111     C      0.900690000000     0.255010000000     0.447490000000    -0.00172918 
C112     C      0.923450000000     0.274930000000     0.425400000000    -0.00131801 
C113     C      0.947270000000     0.257600000000     0.401990000000    -0.0893061  
C114     C      0.947530000000     0.220000000000     0.400620000000    -0.00160947 
C115     C      0.923470000000     0.274930000000     0.616840000000    -0.00135747 
C116     C      0.947300000000     0.257600000000     0.640240000000    -0.0891873  
C117     C      0.947570000000     0.219990000000     0.641610000000    -0.00171813 
C118     C      0.925490000000     0.200060000000     0.618860000000    -0.00135019 
C119     C      0.902060000000     0.217390000000     0.595040000000    -0.089247   
C120     C      0.900700000000     0.255000000000     0.594760000000    -0.00171989 
C121     C      0.118980000000     0.274920000000     0.616810000000    -0.00133704 
C122     C      0.095150000000     0.257600000000     0.640230000000    -0.0894156  
C123     C      0.094880000000     0.219990000000     0.641590000000    -0.00167905 
C124     C      0.116950000000     0.200060000000     0.618830000000    -0.00139528 
C125     C      0.140370000000     0.217390000000     0.595000000000    -0.0893592  
C126     C      0.141730000000     0.254990000000     0.594730000000    -0.00165264 
C127     C      0.423460000000     0.083210000000     0.233620000000    -0.00128323 
C128     C      0.447280000000     0.106630000000     0.250950000000    -0.0894197  
C129     C      0.447550000000     0.107990000000     0.288560000000    -0.00162238 
C130     C      0.425470000000     0.085230000000     0.308490000000    -0.00136876 
C131     C      0.402060000000     0.061400000000     0.291160000000    -0.0892764  
C132     C      0.400700000000     0.061130000000     0.253550000000    -0.00168487 
C133     C      0.400700000000     0.219980000000     0.094690000000    -0.00167959 
C134     C      0.402060000000     0.257590000000     0.094960000000    -0.0893456  
C135     C      0.425470000000     0.274920000000     0.118790000000    -0.00136013 
C136     C      0.447550000000     0.254990000000     0.141550000000    -0.00172978 
C137     C      0.447280000000     0.217390000000     0.140190000000    -0.0892254  
C138     C      0.423460000000     0.200050000000     0.116770000000    -0.00145497 
C139     C      0.288740000000     0.413830000000     0.141570000000    -0.00174123 
C140     C      0.251120000000     0.413560000000     0.140220000000    -0.0893018  
C141     C      0.233770000000     0.389750000000     0.116810000000    -0.00142059 
C142     C      0.253690000000     0.367000000000     0.094720000000    -0.00167365 
C143     C      0.291310000000     0.368350000000     0.094980000000    -0.0894036  
C144     C      0.308660000000     0.391750000000     0.118810000000    -0.00135922 
C145     C      0.116940000000     0.389730000000     0.233680000000    -0.00130604 
C146     C      0.140360000000     0.413550000000     0.251010000000    -0.0894785  
C147     C      0.141720000000     0.413810000000     0.288620000000    -0.00160941 
C148     C      0.118960000000     0.391730000000     0.308550000000    -0.00141256 
C149     C      0.095120000000     0.368330000000     0.291210000000    -0.0893465  
C150     C      0.094850000000     0.366980000000     0.253600000000    -0.00173753 
C151     C      0.288730000000     0.561110000000     0.141600000000    -0.00160826 
C152     C      0.251120000000     0.561370000000     0.140250000000    -0.0894702  
C153     C      0.233770000000     0.585190000000     0.116850000000    -0.001322   
C154     C      0.253690000000     0.607950000000     0.094770000000    -0.0017362  
C155     C      0.291310000000     0.606610000000     0.095030000000    -0.0893519  
C156     C      0.308660000000     0.583200000000     0.118850000000    -0.00142469 
C157     C      0.141730000000     0.413890000000     0.753560000000    -0.001666   
C158     C      0.140370000000     0.413620000000     0.791170000000    -0.0893891  
C159     C      0.116970000000     0.389790000000     0.808500000000    -0.00131969 
C160     C      0.094890000000     0.367030000000     0.788580000000    -0.00172361 
C161     C      0.095160000000     0.368380000000     0.750970000000    -0.0893148  
C162     C      0.118980000000     0.391800000000     0.733630000000    -0.0014302  
C163     C      0.288730000000     0.561170000000     0.900610000000    -0.00162297 
C164     C      0.251110000000     0.561430000000     0.901960000000    -0.0893708  
C165     C      0.233760000000     0.585240000000     0.925380000000    -0.00131126 
C166     C      0.253680000000     0.607990000000     0.947470000000    -0.00169224 
C167     C      0.291300000000     0.606640000000     0.947210000000    -0.0892614  
C168     C      0.308650000000     0.583240000000     0.923380000000    -0.00141298 
C169     C      0.288740000000     0.413880000000     0.900590000000    -0.00162633 
C170     C      0.251120000000     0.413620000000     0.901940000000    -0.0893439  
C171     C      0.233770000000     0.389800000000     0.925340000000    -0.00133254 
C172     C      0.253700000000     0.367040000000     0.947420000000    -0.00169525 
C173     C      0.291310000000     0.368390000000     0.947160000000    -0.0891822  
C174     C      0.308660000000     0.391800000000     0.923340000000    -0.00143595 
C175     C      0.423470000000     0.774930000000     0.116850000000    -0.00142288 
C176     C      0.447300000000     0.757590000000     0.140250000000    -0.0893236  
C177     C      0.447570000000     0.719990000000     0.141610000000    -0.0016657  
C178     C      0.425480000000     0.700060000000     0.118860000000    -0.00139536 
C179     C      0.402060000000     0.717390000000     0.095040000000    -0.0893385  
C180     C      0.400700000000     0.755000000000     0.094770000000    -0.00170926 
C181     C      0.425500000000     0.889780000000     0.308510000000    -0.00138483 
C182     C      0.402090000000     0.913590000000     0.291170000000    -0.089258   
C183     C      0.400720000000     0.913850000000     0.253560000000    -0.00178247 
C184     C      0.423490000000     0.891770000000     0.233640000000    -0.00132321 
C185     C      0.447320000000     0.868370000000     0.250980000000    -0.0893956  
C186     C      0.447590000000     0.867020000000     0.288590000000    -0.00168797 
C187     C      0.788730000000     0.061170000000     0.400610000000    -0.00173454 
C188     C      0.751110000000     0.061430000000     0.401960000000    -0.089166   
C189     C      0.733760000000     0.085240000000     0.425370000000    -0.00145471 
C190     C      0.753690000000     0.107990000000     0.447460000000    -0.00156529 
C191     C      0.791300000000     0.106640000000     0.447200000000    -0.0893905  
C192     C      0.808650000000     0.083240000000     0.423380000000    -0.00125918 
C193     C      0.594900000000     0.867020000000     0.288580000000    -0.00171776 
C194     C      0.595160000000     0.868380000000     0.250970000000    -0.0893201  
C195     C      0.618980000000     0.891790000000     0.233630000000    -0.00138356 
C196     C      0.641740000000     0.913880000000     0.253550000000    -0.00169726 
C197     C      0.640380000000     0.913620000000     0.291160000000    -0.0893843  
C198     C      0.616980000000     0.889780000000     0.308500000000    -0.00134696 
C199     C      0.616940000000     0.085240000000     0.308500000000    -0.00142096 
C200     C      0.640350000000     0.061420000000     0.291160000000    -0.0891706  
C201     C      0.641720000000     0.061160000000     0.253560000000    -0.00171052 
C202     C      0.618960000000     0.083240000000     0.233630000000    -0.00130011 
C203     C      0.595120000000     0.106640000000     0.250960000000    -0.0893589  
C204     C      0.594850000000     0.107990000000     0.288570000000    -0.00160738 
C205     C      0.308660000000     0.085210000000     0.616820000000    -0.00135897 
C206     C      0.291310000000     0.061390000000     0.640230000000    -0.0893043  
C207     C      0.253700000000     0.061140000000     0.641580000000    -0.00160055 
C208     C      0.233770000000     0.083220000000     0.618820000000    -0.00139921 
C209     C      0.251120000000     0.106610000000     0.595000000000    -0.089242   
C210     C      0.288740000000     0.107960000000     0.594730000000    -0.00170451 
C211     C      0.308660000000     0.889770000000     0.616850000000    -0.00138617 
C212     C      0.291310000000     0.913590000000     0.640240000000    -0.0893222  
C213     C      0.253690000000     0.913850000000     0.641590000000    -0.00172957 
C214     C      0.233770000000     0.891770000000     0.618820000000    -0.00137394 
C215     C      0.251120000000     0.868360000000     0.595010000000    -0.0893507  
C216     C      0.288740000000     0.867010000000     0.594760000000    -0.00167581 
C217     C      0.308680000000     0.889780000000     0.425370000000    -0.00139103 
C218     C      0.291320000000     0.913590000000     0.401950000000    -0.0893808  
C219     C      0.253710000000     0.913840000000     0.400600000000    -0.0016524  
C220     C      0.233790000000     0.891760000000     0.423360000000    -0.00142203 
C221     C      0.251140000000     0.868360000000     0.447180000000    -0.0892687  
C222     C      0.288760000000     0.867020000000     0.447450000000    -0.00172066 
C223     C      0.118990000000     0.700050000000     0.425370000000    -0.00138803 
C224     C      0.095160000000     0.717380000000     0.401960000000    -0.0893654  
C225     C      0.094900000000     0.754980000000     0.400590000000    -0.00170485 
C226     C      0.116980000000     0.774910000000     0.423350000000    -0.00138458 
C227     C      0.140390000000     0.757580000000     0.447180000000    -0.0893688  
C228     C      0.141750000000     0.719980000000     0.447450000000    -0.00166296 
C229     C      0.118970000000     0.583180000000     0.308560000000    -0.0013626  
C230     C      0.095150000000     0.606590000000     0.291220000000    -0.0894083  
C231     C      0.094880000000     0.607950000000     0.253610000000    -0.00169538 
C232     C      0.116960000000     0.585190000000     0.233680000000    -0.00143107 
C233     C      0.140360000000     0.561360000000     0.251020000000    -0.0892977  
C234     C      0.141720000000     0.561090000000     0.288630000000    -0.00171993 
C235     C      0.900720000000     0.561140000000     0.288620000000    -0.00172569 
C236     C      0.902080000000     0.561400000000     0.251010000000    -0.0892514  
C237     C      0.925500000000     0.585220000000     0.233670000000    -0.00143583 
C238     C      0.947580000000     0.607980000000     0.253600000000    -0.00158397 
C239     C      0.947310000000     0.606620000000     0.291210000000    -0.0894471  
C240     C      0.923480000000     0.583220000000     0.308540000000    -0.00124219 
C241     C      0.900710000000     0.413860000000     0.288630000000    -0.0016475  
C242     C      0.902060000000     0.413590000000     0.251020000000    -0.0893287  
C243     C      0.925470000000     0.389760000000     0.233680000000    -0.001355   
C244     C      0.947550000000     0.367000000000     0.253610000000    -0.0016834  
C245     C      0.947280000000     0.368360000000     0.291220000000    -0.0892262  
C246     C      0.923460000000     0.391770000000     0.308560000000    -0.0014017  
C247     C      0.733770000000     0.391770000000     0.118820000000    -0.0013543  
C248     C      0.751120000000     0.368370000000     0.095000000000    -0.0894399  
C249     C      0.788740000000     0.367010000000     0.094750000000    -0.00167315 
C250     C      0.808660000000     0.389770000000     0.116830000000    -0.00138266 
C251     C      0.791310000000     0.413590000000     0.140240000000    -0.0893278  
C252     C      0.753700000000     0.413860000000     0.141580000000    -0.00168502 
C253     C      0.616950000000     0.274920000000     0.118810000000    -0.00136186 
C254     C      0.640370000000     0.257590000000     0.094990000000    -0.0894019  
C255     C      0.641730000000     0.219990000000     0.094720000000    -0.00166904 
C256     C      0.618960000000     0.200060000000     0.116800000000    -0.00137242 
C257     C      0.595130000000     0.217390000000     0.140210000000    -0.0894     
C258     C      0.594860000000     0.254990000000     0.141570000000    -0.00166353 
C259     C      0.447570000000     0.107980000000     0.753600000000    -0.00160059 
C260     C      0.447310000000     0.106620000000     0.791210000000    -0.0894146  
C261     C      0.423470000000     0.083220000000     0.808540000000    -0.00125887 
C262     C      0.400710000000     0.061140000000     0.788620000000    -0.00170957 
C263     C      0.402070000000     0.061400000000     0.751010000000    -0.0892348  
C264     C      0.425490000000     0.085220000000     0.733670000000    -0.00143081 
C265     C      0.616980000000     0.274910000000     0.923350000000    -0.00124553 
C266     C      0.640380000000     0.257590000000     0.947180000000    -0.0893595  
C267     C      0.641740000000     0.219980000000     0.947450000000    -0.00160195 
C268     C      0.618990000000     0.200050000000     0.925370000000    -0.00139118 
C269     C      0.595160000000     0.217380000000     0.901950000000    -0.0892631  
C270     C      0.594890000000     0.254990000000     0.900590000000    -0.00174349 
C271     C      0.447590000000     0.255000000000     0.900580000000    -0.0017087  
C272     C      0.447310000000     0.217400000000     0.901940000000    -0.089177   
C273     C      0.423470000000     0.200070000000     0.925340000000    -0.00141639 
C274     C      0.400710000000     0.220000000000     0.947410000000    -0.00160928 
C275     C      0.402070000000     0.257600000000     0.947150000000    -0.0892909  
C276     C      0.425500000000     0.274930000000     0.923330000000    -0.00135797 
C277     C      0.923470000000     0.700070000000     0.425340000000    -0.00138614 
C278     C      0.947320000000     0.717400000000     0.401940000000    -0.0892609  
C279     C      0.947590000000     0.755000000000     0.400580000000    -0.00167243 
C280     C      0.925510000000     0.774930000000     0.423330000000    -0.00131475 
C281     C      0.902080000000     0.757610000000     0.447150000000    -0.0893367  
C282     C      0.900710000000     0.720000000000     0.447420000000    -0.00167693 
C283     C      0.808670000000     0.891800000000     0.423340000000    -0.00137317 
C284     C      0.791320000000     0.868390000000     0.447150000000    -0.0893037  
C285     C      0.753700000000     0.867040000000     0.447420000000    -0.00172639 
C286     C      0.733780000000     0.889800000000     0.425340000000    -0.00138838 
C287     C      0.751130000000     0.913630000000     0.401940000000    -0.0893301  
C288     C      0.788750000000     0.913890000000     0.400580000000    -0.00175144 
C289     C      0.947560000000     0.755000000000     0.641560000000    -0.00166565 
C290     C      0.947290000000     0.717390000000     0.640200000000    -0.0892634  
C291     C      0.923460000000     0.700060000000     0.616780000000    -0.00136447 
C292     C      0.900710000000     0.719990000000     0.594690000000    -0.00170424 
C293     C      0.902070000000     0.757590000000     0.594970000000    -0.0891913  
C294     C      0.925480000000     0.774930000000     0.618800000000    -0.00141458 
C295     C      0.118970000000     0.700060000000     0.616810000000    -0.00145187 
C296     C      0.095130000000     0.717390000000     0.640210000000    -0.0892335  
C297     C      0.094860000000     0.755000000000     0.641580000000    -0.00183727 
C298     C      0.116950000000     0.774920000000     0.618820000000    -0.0012882  
C299     C      0.140370000000     0.757590000000     0.595000000000    -0.0894021  
C300     C      0.141730000000     0.719990000000     0.594730000000    -0.00163257 
C301     C      0.118950000000     0.583240000000     0.733640000000    -0.00140859 
C302     C      0.095120000000     0.606640000000     0.750970000000    -0.0892668  
C303     C      0.094840000000     0.608000000000     0.788580000000    -0.00177265 
C304     C      0.116930000000     0.585240000000     0.808510000000    -0.00133616 
C305     C      0.140350000000     0.561420000000     0.791170000000    -0.0894084  
C306     C      0.141710000000     0.561160000000     0.753570000000    -0.0016245  
C307     C      0.733770000000     0.889750000000     0.616820000000    -0.00137685 
C308     C      0.751120000000     0.913570000000     0.640230000000    -0.0894292  
C309     C      0.788740000000     0.913830000000     0.641570000000    -0.00167472 
C310     C      0.808660000000     0.891760000000     0.618800000000    -0.00130862 
C311     C      0.791320000000     0.868360000000     0.594980000000    -0.0894546  
C312     C      0.753700000000     0.867000000000     0.594720000000    -0.00165726 
C313     C      0.641720000000     0.061100000000     0.788630000000    -0.00162634 
C314     C      0.640370000000     0.061360000000     0.751020000000    -0.0892637  
C315     C      0.616960000000     0.085190000000     0.733680000000    -0.00141308 
C316     C      0.594880000000     0.107950000000     0.753610000000    -0.00161742 
C317     C      0.595150000000     0.106600000000     0.791210000000    -0.0893187  
C318     C      0.618970000000     0.083190000000     0.808560000000    -0.00137619 
C319     C      0.733770000000     0.085190000000     0.616850000000    -0.00140015 
C320     C      0.751120000000     0.061370000000     0.640250000000    -0.0891918  
C321     C      0.788740000000     0.061110000000     0.641600000000    -0.00173291 
C322     C      0.808660000000     0.083200000000     0.618850000000    -0.00127636 
C323     C      0.791310000000     0.106610000000     0.595030000000    -0.0894361  
C324     C      0.753690000000     0.107950000000     0.594770000000    -0.00160895 
C325     C      0.641720000000     0.913820000000     0.788630000000    -0.00166317 
C326     C      0.640360000000     0.913560000000     0.751020000000    -0.0893741  
C327     C      0.616940000000     0.889740000000     0.733680000000    -0.00137856 
C328     C      0.594850000000     0.866980000000     0.753610000000    -0.0017007  
C329     C      0.595120000000     0.868340000000     0.791220000000    -0.0893336  
C330     C      0.618960000000     0.891750000000     0.808560000000    -0.001435   
C331     C      0.447550000000     0.867010000000     0.753620000000    -0.00163699 
C332     C      0.447280000000     0.868370000000     0.791230000000    -0.0894156  
C333     C      0.423460000000     0.891780000000     0.808570000000    -0.00133779 
C334     C      0.400700000000     0.913870000000     0.788640000000    -0.00175465 
C335     C      0.402060000000     0.913600000000     0.751030000000    -0.089313   
C336     C      0.425470000000     0.889770000000     0.733690000000    -0.00144067 
C337     C      0.423450000000     0.774940000000     0.925420000000    -0.00137833 
C338     C      0.447270000000     0.757610000000     0.902000000000    -0.0892364  
C339     C      0.447530000000     0.720010000000     0.900630000000    -0.00167366 
C340     C      0.425450000000     0.700080000000     0.923390000000    -0.00136652 
C341     C      0.402050000000     0.717410000000     0.947220000000    -0.0892494  
C342     C      0.400690000000     0.755010000000     0.947500000000    -0.0016724  
C343     C      0.594840000000     0.719990000000     0.900620000000    -0.00170484 
C344     C      0.595110000000     0.757590000000     0.901980000000    -0.0892268  
C345     C      0.618950000000     0.774920000000     0.925390000000    -0.0014147  
C346     C      0.641710000000     0.754990000000     0.947460000000    -0.00160193 
C347     C      0.640350000000     0.717390000000     0.947190000000    -0.0893346  
C348     C      0.616930000000     0.700060000000     0.923370000000    -0.00132632 
C349     C      0.788740000000     0.607960000000     0.094730000000    -0.00158316 
C350     C      0.751130000000     0.606620000000     0.094990000000    -0.0894913  
C351     C      0.733780000000     0.583220000000     0.118820000000    -0.00132313 
C352     C      0.753700000000     0.561140000000     0.141580000000    -0.00174627 
C353     C      0.791320000000     0.561400000000     0.140230000000    -0.08926    
C354     C      0.808670000000     0.585210000000     0.116810000000    -0.00148452 
C355     C      0.641740000000     0.754990000000     0.094730000000    -0.00160135 
C356     C      0.640380000000     0.717390000000     0.095010000000    -0.0894456  
C357     C      0.616960000000     0.700060000000     0.118830000000    -0.00130937 
C358     C      0.594880000000     0.719990000000     0.141590000000    -0.00177026 
C359     C      0.595160000000     0.757590000000     0.140230000000    -0.0891862  
C360     C      0.618980000000     0.774930000000     0.116810000000    -0.00153752 
C361     C      0.925460000000     0.585230000000     0.808490000000    -0.00122114 
C362     C      0.902060000000     0.561410000000     0.791160000000    -0.089403   
C363     C      0.900700000000     0.561140000000     0.753550000000    -0.00157478 
C364     C      0.923450000000     0.583220000000     0.733620000000    -0.00146138 
C365     C      0.947270000000     0.606640000000     0.750960000000    -0.0891906  
C366     C      0.947540000000     0.608000000000     0.788570000000    -0.00174919 
C367     C      0.753690000000     0.561120000000     0.900600000000    -0.00160688 
C368     C      0.791300000000     0.561390000000     0.901940000000    -0.0893518  
C369     C      0.808650000000     0.585220000000     0.925340000000    -0.00133892 
C370     C      0.788730000000     0.607980000000     0.947420000000    -0.0016772  
C371     C      0.751110000000     0.606620000000     0.947170000000    -0.0892478  
C372     C      0.733760000000     0.583210000000     0.923360000000    -0.00139824 
C373     C      0.808670000000     0.389780000000     0.925360000000    -0.00127567 
C374     C      0.791320000000     0.413590000000     0.901950000000    -0.089393   
C375     C      0.753710000000     0.413840000000     0.900590000000    -0.00155183 
C376     C      0.733780000000     0.391760000000     0.923350000000    -0.00147343 
C377     C      0.751140000000     0.368360000000     0.947180000000    -0.0891969  
C378     C      0.788750000000     0.367020000000     0.947450000000    -0.00170543 
C379     C      0.900720000000     0.413860000000     0.753560000000    -0.00167962 
C380     C      0.902080000000     0.413600000000     0.791170000000    -0.0893142  
C381     C      0.925500000000     0.389780000000     0.808510000000    -0.00138357 
C382     C      0.947580000000     0.367020000000     0.788580000000    -0.00160722 
C383     C      0.947310000000     0.368370000000     0.750980000000    -0.089271   
C384     C      0.923480000000     0.391780000000     0.733640000000    -0.00136003 
H1       H      0.115440000000     0.171080000000     0.422570000000     0.0423034  
H2       H      0.159380000000     0.269020000000     0.465710000000     0.0425514  
H3       H      0.119750000000     0.303890000000     0.426860000000     0.0422809  
H4       H      0.076570000000     0.205940000000     0.382950000000     0.0424823  
H5       H      0.204780000000     0.081710000000     0.422580000000     0.042322   
H6       H      0.302770000000     0.125630000000     0.465680000000     0.0425625  
H7       H      0.337630000000     0.086010000000     0.426810000000     0.042345   
H8       H      0.239640000000     0.042850000000     0.382950000000     0.0426128  
H9       H      0.926940000000     0.171100000000     0.422590000000     0.0423794  
H10      H      0.883030000000     0.269040000000     0.465760000000     0.0425728  
H11      H      0.922660000000     0.303900000000     0.426890000000     0.042327   
H12      H      0.965790000000     0.205960000000     0.382950000000     0.0426158  
H13      H      0.922670000000     0.303900000000     0.615350000000     0.0423385  
H14      H      0.965840000000     0.205960000000     0.659260000000     0.0426564  
H15      H      0.926980000000     0.171090000000     0.619650000000     0.0423729  
H16      H      0.883030000000     0.269030000000     0.576510000000     0.0425744  
H17      H      0.119780000000     0.303900000000     0.615320000000     0.0422822  
H18      H      0.076610000000     0.205960000000     0.659250000000     0.0424947  
H19      H      0.115460000000     0.171090000000     0.619630000000     0.0422971  
H20      H      0.159400000000     0.269030000000     0.576460000000     0.0425225  
H21      H      0.422660000000     0.081720000000     0.204640000000     0.0423002  
H22      H      0.465810000000     0.125650000000     0.302600000000     0.0425549  
H23      H      0.426950000000     0.086020000000     0.337470000000     0.0423404  
H24      H      0.383040000000     0.042860000000     0.239510000000     0.0426051  
H25      H      0.383040000000     0.205950000000     0.076420000000     0.0424999  
H26      H      0.426960000000     0.303890000000     0.119590000000     0.0422888  
H27      H      0.465810000000     0.269020000000     0.159220000000     0.0425585  
H28      H      0.422670000000     0.171080000000     0.115280000000     0.0423128  
H29      H      0.302780000000     0.432080000000     0.159230000000     0.0425516  
H30      H      0.204790000000     0.388960000000     0.115330000000     0.0422668  
H31      H      0.239640000000     0.349350000000     0.076460000000     0.0424713  
H32      H      0.337640000000     0.393230000000     0.119590000000     0.0422901  
H33      H      0.115450000000     0.388940000000     0.204700000000     0.0422361  
H34      H      0.159390000000     0.432070000000     0.302660000000     0.0425134  
H35      H      0.119760000000     0.393210000000     0.337530000000     0.0422998  
H36      H      0.076580000000     0.349320000000     0.239570000000     0.0424942  
H37      H      0.302780000000     0.542850000000     0.159250000000     0.0425112  
H38      H      0.204780000000     0.585970000000     0.115370000000     0.0422274  
H39      H      0.239640000000     0.625610000000     0.076520000000     0.0424806  
H40      H      0.337640000000     0.581720000000     0.119640000000     0.0423111  
H41      H      0.159380000000     0.432150000000     0.739520000000     0.0425337  
H42      H      0.115480000000     0.389000000000     0.837480000000     0.0422804  
H43      H      0.076630000000     0.349360000000     0.802620000000     0.0425113  
H44      H      0.119770000000     0.393280000000     0.704660000000     0.0423118  
H45      H      0.302780000000     0.542920000000     0.882950000000     0.0425539  
H46      H      0.204770000000     0.586020000000     0.926860000000     0.0423152  
H47      H      0.239630000000     0.625640000000     0.965730000000     0.0426128  
H48      H      0.337630000000     0.581770000000     0.922600000000     0.0423555  
H49      H      0.302790000000     0.432140000000     0.882940000000     0.0425511  
H50      H      0.204790000000     0.389010000000     0.926820000000     0.042329   
H51      H      0.239650000000     0.349380000000     0.965670000000     0.0426177  
H52      H      0.337640000000     0.393280000000     0.922560000000     0.0423655  
H53      H      0.422670000000     0.803890000000     0.115360000000     0.0422682  
H54      H      0.465850000000     0.705960000000     0.159270000000     0.0425316  
H55      H      0.426970000000     0.671090000000     0.119650000000     0.0423063  
H56      H      0.383030000000     0.769030000000     0.076510000000     0.0424765  
H57      H      0.426990000000     0.888990000000     0.337490000000     0.0422912  
H58      H      0.383060000000     0.932110000000     0.239520000000     0.0424837  
H59      H      0.422690000000     0.893250000000     0.204660000000     0.0422351  
H60      H      0.465850000000     0.849370000000     0.302630000000     0.0425392  
H61      H      0.802780000000     0.042910000000     0.382950000000     0.0426508  
H62      H      0.704780000000     0.086030000000     0.426840000000     0.0423665  
H63      H      0.739630000000     0.125640000000     0.465720000000     0.0425273  
H64      H      0.837640000000     0.081760000000     0.422590000000     0.0423364  
H65      H      0.576640000000     0.849360000000     0.302620000000     0.0425455  
H66      H      0.619770000000     0.893280000000     0.204650000000     0.0422551  
H67      H      0.659390000000     0.932150000000     0.239510000000     0.0424728  
H68      H      0.615490000000     0.888990000000     0.337480000000     0.0422828  
H69      H      0.615450000000     0.086030000000     0.337480000000     0.0423499  
H70      H      0.659380000000     0.042900000000     0.239520000000     0.042621   
H71      H      0.619750000000     0.081750000000     0.204650000000     0.0423226  
H72      H      0.576580000000     0.125650000000     0.302610000000     0.0425478  
H73      H      0.337640000000     0.085990000000     0.615330000000     0.0423379  
H74      H      0.239650000000     0.042880000000     0.659240000000     0.0425998  
H75      H      0.204790000000     0.081740000000     0.619610000000     0.0423493  
H76      H      0.302790000000     0.125610000000     0.576470000000     0.0425688  
H77      H      0.337640000000     0.888980000000     0.615370000000     0.0422993  
H78      H      0.239640000000     0.932110000000     0.659240000000     0.0424845  
H79      H      0.204790000000     0.893250000000     0.619610000000     0.0422613  
H80      H      0.302790000000     0.849350000000     0.576500000000     0.0425428  
H81      H      0.337660000000     0.889000000000     0.426850000000     0.0423023  
H82      H      0.239660000000     0.932090000000     0.382930000000     0.0424603  
H83      H      0.204800000000     0.893230000000     0.422570000000     0.0422648  
H84      H      0.302810000000     0.849370000000     0.465710000000     0.0425488  
H85      H      0.119780000000     0.671080000000     0.426860000000     0.0422977  
H86      H      0.076640000000     0.769010000000     0.382920000000     0.0424662  
H87      H      0.115490000000     0.803880000000     0.422550000000     0.0422507  
H88      H      0.159410000000     0.705950000000     0.465720000000     0.0425356  
H89      H      0.119760000000     0.581700000000     0.337530000000     0.0422902  
H90      H      0.076630000000     0.625610000000     0.239570000000     0.0424664  
H91      H      0.115480000000     0.585980000000     0.204710000000     0.0422594  
H92      H      0.159380000000     0.542830000000     0.302670000000     0.0425397  
H93      H      0.883050000000     0.542880000000     0.302660000000     0.0425696  
H94      H      0.926980000000     0.586000000000     0.204700000000     0.0423524  
H95      H      0.965850000000     0.625630000000     0.239560000000     0.0425777  
H96      H      0.922680000000     0.581740000000     0.337520000000     0.0423033  
H97      H      0.883040000000     0.432120000000     0.302660000000     0.0425519  
H98      H      0.926960000000     0.388970000000     0.204710000000     0.0423381  
H99      H      0.965810000000     0.349340000000     0.239570000000     0.0426231  
H100     H      0.922660000000     0.393260000000     0.337530000000     0.0423467  
H101     H      0.704790000000     0.393250000000     0.119600000000     0.0422966  
H102     H      0.802790000000     0.349350000000     0.076500000000     0.0424949  
H103     H      0.837650000000     0.388980000000     0.115360000000     0.042299   
H104     H      0.739650000000     0.432120000000     0.159230000000     0.042536   
H105     H      0.615460000000     0.303890000000     0.119610000000     0.0422901  
H106     H      0.659390000000     0.205950000000     0.076460000000     0.0424932  
H107     H      0.619750000000     0.171090000000     0.115310000000     0.0422982  
H108     H      0.576600000000     0.269030000000     0.159230000000     0.0425339  
H109     H      0.465840000000     0.125630000000     0.739560000000     0.0425466  
H110     H      0.422680000000     0.081740000000     0.837520000000     0.0423464  
H111     H      0.383050000000     0.042880000000     0.802660000000     0.0426448  
H112     H      0.426970000000     0.086010000000     0.704700000000     0.0423601  
H113     H      0.615490000000     0.303890000000     0.922550000000     0.0423007  
H114     H      0.659410000000     0.205950000000     0.965720000000     0.0426223  
H115     H      0.619780000000     0.171080000000     0.926860000000     0.0423888  
H116     H      0.576630000000     0.269020000000     0.882920000000     0.0425806  
H117     H      0.465860000000     0.269030000000     0.882920000000     0.0425719  
H118     H      0.422670000000     0.171100000000     0.926830000000     0.0423826  
H119     H      0.383040000000     0.205970000000     0.965670000000     0.0426258  
H120     H      0.426990000000     0.303900000000     0.922540000000     0.0423399  
H121     H      0.922670000000     0.671100000000     0.426830000000     0.0423376  
H122     H      0.965870000000     0.769030000000     0.382930000000     0.0426096  
H123     H      0.927000000000     0.803910000000     0.422540000000     0.0423142  
H124     H      0.883040000000     0.705970000000     0.465670000000     0.0425701  
H125     H      0.837650000000     0.893280000000     0.422550000000     0.042288   
H126     H      0.739660000000     0.849380000000     0.465670000000     0.0425549  
H127     H      0.704800000000     0.889010000000     0.426810000000     0.0423015  
H128     H      0.802790000000     0.932150000000     0.382940000000     0.0425139  
H129     H      0.965820000000     0.769030000000     0.659220000000     0.0426282  
H130     H      0.922670000000     0.671090000000     0.615290000000     0.0423458  
H131     H      0.883050000000     0.705960000000     0.576420000000     0.0425697  
H132     H      0.926960000000     0.803900000000     0.619590000000     0.0423532  
H133     H      0.119760000000     0.671090000000     0.615320000000     0.0423121  
H134     H      0.076600000000     0.769030000000     0.659230000000     0.0425254  
H135     H      0.115470000000     0.803900000000     0.619610000000     0.0422333  
H136     H      0.159390000000     0.705950000000     0.576470000000     0.0425188  
H137     H      0.119750000000     0.581760000000     0.704660000000     0.0423029  
H138     H      0.076580000000     0.625650000000     0.802620000000     0.0425224  
H139     H      0.115440000000     0.586030000000     0.837490000000     0.0422721  
H140     H      0.159380000000     0.542910000000     0.739530000000     0.0425255  
H141     H      0.704790000000     0.888960000000     0.615340000000     0.0422917  
H142     H      0.802790000000     0.932090000000     0.659230000000     0.0425023  
H143     H      0.837650000000     0.893240000000     0.619590000000     0.0422742  
H144     H      0.739650000000     0.849350000000     0.576460000000     0.0425295  
H145     H      0.659380000000     0.042830000000     0.802670000000     0.0426302  
H146     H      0.615480000000     0.085980000000     0.704710000000     0.0423536  
H147     H      0.576630000000     0.125610000000     0.739560000000     0.0425453  
H148     H      0.619760000000     0.081700000000     0.837530000000     0.0423801  
H149     H      0.704780000000     0.085970000000     0.615370000000     0.0423422  
H150     H      0.802780000000     0.042850000000     0.659250000000     0.0426722  
H151     H      0.837640000000     0.081720000000     0.619630000000     0.0423595  
H152     H      0.739640000000     0.125610000000     0.576520000000     0.0425381  
H153     H      0.659390000000     0.932080000000     0.802660000000     0.042504   
H154     H      0.615450000000     0.888950000000     0.704710000000     0.0423015  
H155     H      0.576580000000     0.849330000000     0.739580000000     0.0425506  
H156     H      0.619750000000     0.893230000000     0.837530000000     0.0423217  
H157     H      0.465810000000     0.849350000000     0.739580000000     0.0425209  
H158     H      0.422660000000     0.893270000000     0.837540000000     0.0422869  
H159     H      0.383050000000     0.932130000000     0.802670000000     0.0425182  
H160     H      0.426960000000     0.888980000000     0.704720000000     0.0423138  
H161     H      0.422660000000     0.803910000000     0.926910000000     0.0423406  
H162     H      0.465790000000     0.705970000000     0.882960000000     0.0425632  
H163     H      0.426930000000     0.671110000000     0.922590000000     0.0423389  
H164     H      0.383040000000     0.769050000000     0.965770000000     0.0425969  
H165     H      0.576570000000     0.705960000000     0.882960000000     0.0425741  
H166     H      0.619750000000     0.803890000000     0.926880000000     0.0423524  
H167     H      0.659380000000     0.769030000000     0.965720000000     0.0425846  
H168     H      0.615440000000     0.671090000000     0.922570000000     0.0423275  
H169     H      0.802790000000     0.625610000000     0.076470000000     0.0424629  
H170     H      0.704800000000     0.581740000000     0.119610000000     0.0422841  
H171     H      0.739650000000     0.542890000000     0.159240000000     0.042554   
H172     H      0.837650000000     0.585990000000     0.115330000000     0.0423181  
H173     H      0.659400000000     0.769030000000     0.076470000000     0.0424454  
H174     H      0.615470000000     0.671090000000     0.119630000000     0.042274   
H175     H      0.576620000000     0.705960000000     0.159260000000     0.0425633  
H176     H      0.619780000000     0.803890000000     0.115330000000     0.0423041  
H177     H      0.926950000000     0.586030000000     0.837470000000     0.04233    
H178     H      0.883040000000     0.542870000000     0.739510000000     0.0425328  
H179     H      0.922660000000     0.581740000000     0.704650000000     0.0423654  
H180     H      0.965800000000     0.625660000000     0.802610000000     0.0426551  
H181     H      0.739640000000     0.542860000000     0.882940000000     0.0425388  
H182     H      0.837630000000     0.586010000000     0.926810000000     0.0423671  
H183     H      0.802780000000     0.625630000000     0.965680000000     0.0426381  
H184     H      0.704780000000     0.581720000000     0.922570000000     0.042348   
H185     H      0.837660000000     0.389000000000     0.926840000000     0.0423464  
H186     H      0.739650000000     0.432090000000     0.882930000000     0.0425273  
H187     H      0.704800000000     0.393230000000     0.922560000000     0.0423693  
H188     H      0.802800000000     0.349370000000     0.965710000000     0.0426459  
H189     H      0.883060000000     0.432110000000     0.739520000000     0.0425629  
H190     H      0.926980000000     0.388990000000     0.837480000000     0.0423836  
H191     H      0.965850000000     0.349370000000     0.802630000000     0.0426231  
H192     H      0.922690000000     0.393260000000     0.704660000000     0.0423339  
Ni1      Ni     0.869130000000     0.487500000000     0.868970000000     0.998666   
Ni2      Ni     0.823850000000     0.487490000000     0.823720000000     0.99162    
Ni3      Ni     0.718590000000     0.684830000000     0.021090000000     0.991233   
Ni4      Ni     0.673310000000     0.639590000000     0.021090000000     0.998055   
Ni5      Ni     0.521190000000     0.790150000000     0.823770000000     0.991632   
Ni6      Ni     0.521200000000     0.835400000000     0.869030000000     0.99854    
Ni7      Ni     0.673310000000     0.987460000000     0.673210000000     0.997884   
Ni8      Ni     0.718590000000     0.987460000000     0.718460000000     0.99106    
Ni9      Ni     0.021200000000     0.639600000000     0.673160000000     0.99806    
Ni10     Ni     0.021200000000     0.684850000000     0.718420000000     0.990829   
Ni11     Ni     0.823850000000     0.790160000000     0.521050000000     0.991623   
Ni12     Ni     0.869130000000     0.835410000000     0.521060000000     0.998715   
Ni13     Ni     0.521240000000     0.184830000000     0.823740000000     0.991598   
Ni14     Ni     0.521230000000     0.139590000000     0.869010000000     0.998775   
Ni15     Ni     0.718600000000     0.290150000000     0.021090000000     0.991216   
Ni16     Ni     0.673320000000     0.335390000000     0.021090000000     0.998056   
Ni17     Ni     0.823850000000     0.487500000000     0.218450000000     0.991626   
Ni18     Ni     0.869130000000     0.487490000000     0.173200000000     0.998731   
Ni19     Ni     0.021240000000     0.684830000000     0.323740000000     0.991272   
Ni20     Ni     0.021230000000     0.639580000000     0.369010000000     0.998077   
Ni21     Ni     0.173320000000     0.835390000000     0.521090000000     0.998564   
Ni22     Ni     0.218600000000     0.790150000000     0.521100000000     0.991738   
Ni23     Ni     0.323840000000     0.987500000000     0.718460000000     0.991037   
Ni24     Ni     0.369120000000     0.987490000000     0.673210000000     0.997898   
Ni25     Ni     0.673310000000     0.987520000000     0.368970000000     0.998015   
Ni26     Ni     0.718590000000     0.987530000000     0.323720000000     0.990985   
Ni27     Ni     0.521230000000     0.835400000000     0.173170000000     0.998548   
Ni28     Ni     0.521240000000     0.790160000000     0.218450000000     0.991826   
Ni29     Ni     0.173300000000     0.487520000000     0.868980000000     0.998568   
Ni30     Ni     0.218580000000     0.487540000000     0.823730000000     0.991744   
Ni31     Ni     0.369110000000     0.639600000000     0.021130000000     0.998038   
Ni32     Ni     0.323830000000     0.684840000000     0.021140000000     0.990827   
Ni33     Ni     0.218590000000     0.487450000000     0.218460000000     0.991992   
Ni34     Ni     0.173300000000     0.487450000000     0.173210000000     0.998751   
Ni35     Ni     0.369120000000     0.335400000000     0.021060000000     0.998009   
Ni36     Ni     0.323840000000     0.290160000000     0.021050000000     0.990919   
Ni37     Ni     0.521200000000     0.139590000000     0.173150000000     0.998697   
Ni38     Ni     0.521200000000     0.184840000000     0.218410000000     0.991552   
Ni39     Ni     0.021230000000     0.335400000000     0.673170000000     0.997957   
Ni40     Ni     0.021240000000     0.290160000000     0.718440000000     0.991106   
Ni41     Ni     0.869120000000     0.139590000000     0.521120000000     0.998912   
Ni42     Ni     0.823830000000     0.184840000000     0.521130000000     0.991753   
Ni43     Ni     0.218590000000     0.184820000000     0.521080000000     0.991645   
Ni44     Ni     0.173300000000     0.139580000000     0.521090000000     0.998659   
Ni45     Ni     0.369130000000     0.987500000000     0.368970000000     0.997887   
Ni46     Ni     0.323850000000     0.987490000000     0.323720000000     0.990932   
Ni47     Ni     0.021190000000     0.290140000000     0.323760000000     0.990739   
Ni48     Ni     0.021200000000     0.335390000000     0.369020000000     0.998019   
O1       O      0.842030000000     0.451220000000     0.893100000000    -0.434965   
O2       O      0.893240000000     0.523790000000     0.841860000000    -0.434973   
O3       O      0.842020000000     0.523780000000     0.893090000000    -0.434938   
O4       O      0.893250000000     0.451220000000     0.841870000000    -0.435024   
O5       O      0.851200000000     0.451430000000     0.799400000000    -0.4337     
O6       O      0.799520000000     0.523560000000     0.851070000000    -0.433556   
O7       O      0.851190000000     0.523560000000     0.799390000000    -0.433598   
O8       O      0.799530000000     0.451420000000     0.851080000000    -0.433521   
O9       O      0.742900000000     0.657480000000     0.985010000000    -0.433378   
O10      O      0.691250000000     0.709150000000     0.057160000000    -0.433699   
O11      O      0.742910000000     0.657480000000     0.057150000000    -0.433638   
O12      O      0.691240000000     0.709150000000     0.985020000000    -0.43331    
O13      O      0.649190000000     0.666690000000     0.984810000000    -0.434736   
O14      O      0.700410000000     0.615470000000     0.057380000000    -0.434989   
O15      O      0.649200000000     0.666690000000     0.057380000000    -0.434986   
O16      O      0.700400000000     0.615470000000     0.984800000000    -0.43481    
O17      O      0.557270000000     0.817490000000     0.799450000000    -0.43373    
O18      O      0.485110000000     0.765830000000     0.851120000000    -0.433582   
O19      O      0.485110000000     0.817500000000     0.799460000000    -0.433658   
O20      O      0.557270000000     0.765820000000     0.851110000000    -0.433478   
O21      O      0.557490000000     0.808300000000     0.893150000000    -0.434875   
O22      O      0.484900000000     0.859520000000     0.841940000000    -0.434993   
O23      O      0.484900000000     0.808310000000     0.893150000000    -0.434963   
O24      O      0.557500000000     0.859510000000     0.841930000000    -0.435126   
O25      O      0.700410000000     0.951180000000     0.649090000000    -0.435087   
O26      O      0.649190000000     0.023740000000     0.700320000000    -0.434721   
O27      O      0.700410000000     0.023740000000     0.649090000000    -0.434729   
O28      O      0.649190000000     0.951170000000     0.700320000000    -0.434917   
O29      O      0.691240000000     0.951390000000     0.742790000000    -0.433555   
O30      O      0.742910000000     0.023520000000     0.691110000000    -0.433384   
O31      O      0.691240000000     0.023520000000     0.742790000000    -0.433344   
O32      O      0.742910000000     0.951390000000     0.691100000000    -0.433617   
O33      O      0.984910000000     0.615480000000     0.700250000000    -0.43469    
O34      O      0.057500000000     0.666690000000     0.649050000000    -0.435007   
O35      O      0.057500000000     0.615480000000     0.700260000000    -0.434874   
O36      O      0.984910000000     0.666690000000     0.649040000000    -0.434758   
O37      O      0.985120000000     0.709170000000     0.691070000000    -0.433255   
O38      O      0.057270000000     0.657500000000     0.742750000000    -0.433554   
O39      O      0.057280000000     0.709170000000     0.691080000000    -0.433545   
O40      O      0.985110000000     0.657500000000     0.742730000000    -0.433323   
O41      O      0.799530000000     0.817520000000     0.484980000000    -0.43368    
O42      O      0.851190000000     0.765830000000     0.557120000000    -0.433563   
O43      O      0.799530000000     0.817510000000     0.557130000000    -0.433604   
O44      O      0.851200000000     0.765840000000     0.484980000000    -0.433633   
O45      O      0.893250000000     0.808310000000     0.484770000000    -0.434972   
O46      O      0.842030000000     0.859520000000     0.557350000000    -0.435036   
O47      O      0.893240000000     0.808300000000     0.557350000000    -0.434956   
O48      O      0.842030000000     0.859530000000     0.484780000000    -0.43518    
O49      O      0.485160000000     0.157480000000     0.799420000000    -0.433647   
O50      O      0.557320000000     0.209150000000     0.851080000000    -0.433582   
O51      O      0.557320000000     0.157470000000     0.799430000000    -0.433627   
O52      O      0.485160000000     0.209160000000     0.851070000000    -0.433496   
O53      O      0.484940000000     0.166690000000     0.893120000000    -0.434936   
O54      O      0.557520000000     0.115460000000     0.841920000000    -0.434952   
O55      O      0.557530000000     0.166680000000     0.893120000000    -0.435008   
O56      O      0.484930000000     0.115470000000     0.841910000000    -0.434974   
O57      O      0.742910000000     0.317500000000     0.057170000000    -0.433572   
O58      O      0.691260000000     0.265830000000     0.985020000000    -0.433399   
O59      O      0.742920000000     0.317500000000     0.985020000000    -0.433401   
O60      O      0.691250000000     0.265830000000     0.057160000000    -0.433659   
O61      O      0.649200000000     0.308290000000     0.057370000000    -0.435002   
O62      O      0.700420000000     0.359510000000     0.984800000000    -0.434695   
O63      O      0.649210000000     0.308290000000     0.984800000000    -0.434704   
O64      O      0.700410000000     0.359510000000     0.057380000000    -0.435013   
O65      O      0.799530000000     0.451430000000     0.191100000000    -0.433717   
O66      O      0.851200000000     0.523570000000     0.242780000000    -0.433611   
O67      O      0.799530000000     0.523570000000     0.191100000000    -0.43361    
O68      O      0.851190000000     0.451430000000     0.242780000000    -0.433637   
O69      O      0.893240000000     0.451210000000     0.200310000000    -0.434982   
O70      O      0.842030000000     0.523770000000     0.149080000000    -0.435138   
O71      O      0.893250000000     0.523770000000     0.200310000000    -0.435024   
O72      O      0.842030000000     0.451210000000     0.149080000000    -0.435056   
O73      O      0.985160000000     0.657480000000     0.299430000000    -0.433535   
O74      O      0.057320000000     0.709140000000     0.351080000000    -0.433698   
O75      O      0.057320000000     0.657470000000     0.299430000000    -0.43356    
O76      O      0.985170000000     0.709160000000     0.351080000000    -0.433346   
O77      O      0.984940000000     0.666690000000     0.393120000000    -0.434661   
O78      O      0.057520000000     0.615460000000     0.341920000000    -0.435032   
O79      O      0.057530000000     0.666680000000     0.393120000000    -0.434985   
O80      O      0.984930000000     0.615470000000     0.341910000000    -0.434796   
O81      O      0.200420000000     0.859510000000     0.484800000000    -0.434995   
O82      O      0.149200000000     0.808290000000     0.557370000000    -0.435075   
O83      O      0.200410000000     0.859510000000     0.557380000000    -0.435038   
O84      O      0.149210000000     0.808280000000     0.484800000000    -0.435147   
O85      O      0.191260000000     0.765820000000     0.485020000000    -0.433629   
O86      O      0.242920000000     0.817500000000     0.557170000000    -0.43364    
O87      O      0.191250000000     0.765830000000     0.557160000000    -0.433771   
O88      O      0.242930000000     0.817500000000     0.485030000000    -0.433552   
O89      O      0.299520000000     0.951430000000     0.691110000000    -0.433578   
O90      O      0.351190000000     0.023570000000     0.742780000000    -0.433321   
O91      O      0.299520000000     0.023560000000     0.691100000000    -0.433295   
O92      O      0.351190000000     0.951440000000     0.742790000000    -0.433575   
O93      O      0.393240000000     0.951210000000     0.700320000000    -0.434957   
O94      O      0.342020000000     0.023770000000     0.649080000000    -0.434698   
O95      O      0.393240000000     0.023780000000     0.700310000000    -0.434654   
O96      O      0.342020000000     0.951210000000     0.649090000000    -0.43508    
O97      O      0.700400000000     0.023810000000     0.393100000000    -0.434572   
O98      O      0.649200000000     0.951240000000     0.341860000000    -0.435063   
O99      O      0.700410000000     0.951240000000     0.393090000000    -0.434972   
O100     O      0.649190000000     0.023800000000     0.341870000000    -0.434726   
O101     O      0.691240000000     0.023600000000     0.299400000000    -0.433345   
O102     O      0.742910000000     0.951470000000     0.351070000000    -0.433588   
O103     O      0.691250000000     0.951460000000     0.299390000000    -0.433618   
O104     O      0.742910000000     0.023600000000     0.351080000000    -0.43316    
O105     O      0.484930000000     0.808290000000     0.149070000000    -0.435167   
O106     O      0.557530000000     0.859520000000     0.200260000000    -0.435059   
O107     O      0.557530000000     0.808300000000     0.149060000000    -0.434981   
O108     O      0.484940000000     0.859520000000     0.200270000000    -0.435128   
O109     O      0.485160000000     0.817510000000     0.242760000000    -0.433764   
O110     O      0.557320000000     0.765830000000     0.191100000000    -0.433575   
O111     O      0.557320000000     0.817510000000     0.242750000000    -0.4338     
O112     O      0.485160000000     0.765830000000     0.191110000000    -0.433686   
O113     O      0.200400000000     0.523810000000     0.893110000000    -0.43497    
O114     O      0.149190000000     0.451240000000     0.841870000000    -0.435089   
O115     O      0.200410000000     0.451240000000     0.893100000000    -0.435033   
O116     O      0.149180000000     0.523800000000     0.841880000000    -0.435023   
O117     O      0.191230000000     0.523600000000     0.799410000000    -0.433696   
O118     O      0.242910000000     0.451470000000     0.851080000000    -0.433508   
O119     O      0.191240000000     0.451470000000     0.799400000000    -0.433635   
O120     O      0.242900000000     0.523600000000     0.851090000000    -0.433624   
O121     O      0.393230000000     0.666690000000     0.057420000000    -0.434962   
O122     O      0.342010000000     0.615480000000     0.984840000000    -0.43472    
O123     O      0.393220000000     0.666710000000     0.984840000000    -0.434676   
O124     O      0.342020000000     0.615470000000     0.057410000000    -0.434991   
O125     O      0.299510000000     0.657480000000     0.057210000000    -0.433484   
O126     O      0.351170000000     0.709170000000     0.985070000000    -0.433314   
O127     O      0.299510000000     0.657490000000     0.985060000000    -0.433241   
O128     O      0.351180000000     0.709160000000     0.057210000000    -0.433577   
O129     O      0.242900000000     0.523520000000     0.191110000000    -0.433718   
O130     O      0.191240000000     0.451380000000     0.242780000000    -0.433615   
O131     O      0.242900000000     0.451390000000     0.191100000000    -0.433726   
O132     O      0.191240000000     0.523510000000     0.242790000000    -0.433656   
O133     O      0.149190000000     0.523730000000     0.200320000000    -0.435096   
O134     O      0.200400000000     0.451180000000     0.149080000000    -0.435065   
O135     O      0.149190000000     0.451170000000     0.200310000000    -0.435191   
O136     O      0.200410000000     0.523740000000     0.149090000000    -0.435062   
O137     O      0.342020000000     0.359510000000     0.057350000000    -0.435079   
O138     O      0.393240000000     0.308300000000     0.984770000000    -0.434754   
O139     O      0.342030000000     0.359530000000     0.984780000000    -0.434675   
O140     O      0.393240000000     0.308290000000     0.057340000000    -0.434961   
O141     O      0.351190000000     0.265820000000     0.057120000000    -0.433475   
O142     O      0.299530000000     0.317510000000     0.984980000000    -0.433329   
O143     O      0.351190000000     0.265840000000     0.984980000000    -0.433336   
O144     O      0.299520000000     0.317500000000     0.057130000000    -0.433592   
O145     O      0.557500000000     0.166690000000     0.149040000000    -0.435051   
O146     O      0.484910000000     0.115470000000     0.200250000000    -0.435059   
O147     O      0.484910000000     0.166680000000     0.149030000000    -0.435088   
O148     O      0.557500000000     0.115480000000     0.200250000000    -0.435      
O149     O      0.557280000000     0.157500000000     0.242740000000    -0.433522   
O150     O      0.485120000000     0.209160000000     0.191060000000    -0.433574   
O151     O      0.485120000000     0.157490000000     0.242730000000    -0.433649   
O152     O      0.557280000000     0.209160000000     0.191070000000    -0.433656   
O153     O      0.984930000000     0.308300000000     0.649070000000    -0.434765   
O154     O      0.057530000000     0.359520000000     0.700260000000    -0.434977   
O155     O      0.057530000000     0.308300000000     0.649060000000    -0.435021   
O156     O      0.984940000000     0.359520000000     0.700270000000    -0.434688   
O157     O      0.985160000000     0.317510000000     0.742760000000    -0.433293   
O158     O      0.057310000000     0.265840000000     0.691100000000    -0.433694   
O159     O      0.057320000000     0.317510000000     0.742750000000    -0.433557   
O160     O      0.985150000000     0.265830000000     0.691110000000    -0.433204   
O161     O      0.842010000000     0.115480000000     0.484830000000    -0.435115   
O162     O      0.893230000000     0.166690000000     0.557410000000    -0.435013   
O163     O      0.842020000000     0.115470000000     0.557410000000    -0.434992   
O164     O      0.893230000000     0.166700000000     0.484840000000    -0.435022   
O165     O      0.851170000000     0.209170000000     0.485060000000    -0.433549   
O166     O      0.799520000000     0.157480000000     0.557200000000    -0.433619   
O167     O      0.851180000000     0.209160000000     0.557210000000    -0.433613   
O168     O      0.799510000000     0.157490000000     0.485060000000    -0.433683   
O169     O      0.242900000000     0.157470000000     0.485010000000    -0.433747   
O170     O      0.191240000000     0.209150000000     0.557160000000    -0.43358    
O171     O      0.242910000000     0.157470000000     0.557150000000    -0.433595   
O172     O      0.191230000000     0.209150000000     0.485020000000    -0.433608   
O173     O      0.149180000000     0.166680000000     0.484810000000    -0.435037   
O174     O      0.200400000000     0.115460000000     0.557380000000    -0.43495    
O175     O      0.149190000000     0.166690000000     0.557380000000    -0.435127   
O176     O      0.200400000000     0.115460000000     0.484800000000    -0.435085   
O177     O      0.342030000000     0.951210000000     0.393100000000    -0.434915   
O178     O      0.393240000000     0.023780000000     0.341860000000    -0.434765   
O179     O      0.342020000000     0.023780000000     0.393090000000    -0.434633   
O180     O      0.393250000000     0.951220000000     0.341870000000    -0.434994   
O181     O      0.351200000000     0.951420000000     0.299400000000    -0.433622   
O182     O      0.299520000000     0.023550000000     0.351070000000    -0.433263   
O183     O      0.351190000000     0.023560000000     0.299390000000    -0.433342   
O184     O      0.299530000000     0.951420000000     0.351080000000    -0.433485   
O185     O      0.985100000000     0.265830000000     0.351110000000    -0.433275   
O186     O      0.057270000000     0.317480000000     0.299440000000    -0.433657   
O187     O      0.057270000000     0.265810000000     0.351110000000    -0.433497   
O188     O      0.985110000000     0.317490000000     0.299440000000    -0.433155   
O189     O      0.984910000000     0.359510000000     0.341930000000    -0.434666   
O190     O      0.057490000000     0.308290000000     0.393140000000    -0.434927   
O191     O      0.057500000000     0.359500000000     0.341920000000    -0.435077   
O192     O      0.984900000000     0.308300000000     0.393140000000    -0.434671   


