data_structure

_audit_creation_method RASPA-1.0
_audit_creation_date 2023-5-22
_audit_author_name 'Poobodin Mano'

_cell_length_a    43.4655
_cell_length_b    43.4662
_cell_length_c    43.5613
_cell_angle_alpha 90
_cell_angle_beta  90
_cell_angle_gamma 90
_cell_volume      82299.5

_symmetry_cell_setting          triclinic
_symmetry_space_group_name_Hall 'P 1'
_symmetry_space_group_name_H-M  'P 1'
_symmetry_Int_Tables_number     1

_symmetry_equiv_pos_as_xyz 'x,y,z'

loop_
_atom_site_label
_atom_site_type_symbol
_atom_site_fract_x
_atom_site_fract_y
_atom_site_fract_z
_atom_site_charge
C1       C      0.370390000000     0.928400000000     0.994940000000     0.378168   
C2       C      0.370170000000     0.811230000000     0.494520000000     0.379059   
C3       C      0.370830000000     0.869630000000     0.053210000000     0.377765   
C4       C      0.369760000000     0.869860000000     0.436190000000     0.378448   
C5       C      0.370400000000     0.928380000000     0.245040000000     0.378763   
C6       C      0.370220000000     0.811220000000     0.244330000000     0.379405   
C7       C      0.369780000000     0.869490000000     0.303200000000     0.378098   
C8       C      0.370850000000     0.869980000000     0.186190000000     0.378655   
C9       C      0.370420000000     0.061670000000     0.996480000000     0.378017   
C10      C      0.370290000000     0.178840000000     0.996830000000     0.379903   
C11      C      0.370300000000     0.120430000000     0.438180000000     0.378306   
C12      C      0.370420000000     0.120220000000     0.055200000000     0.377827   
C13      C      0.370420000000     0.061650000000     0.246480000000     0.378629   
C14      C      0.370280000000     0.178810000000     0.246860000000     0.378955   
C15      C      0.370290000000     0.120420000000     0.188180000000     0.378386   
C16      C      0.370430000000     0.120180000000     0.305200000000     0.378236   
C17      C      0.928220000000     0.619580000000     0.993900000000     0.378197   
C18      C      0.811060000000     0.619720000000     0.494210000000     0.379228   
C19      C      0.869690000000     0.619110000000     0.052520000000     0.377806   
C20      C      0.869440000000     0.620170000000     0.435500000000     0.378344   
C21      C      0.928220000000     0.619560000000     0.243970000000     0.378706   
C22      C      0.811060000000     0.619740000000     0.243900000000     0.379186   
C23      C      0.869520000000     0.620170000000     0.302500000000     0.378341   
C24      C      0.869620000000     0.619110000000     0.185480000000     0.37862    
C25      C      0.061490000000     0.619600000000     0.993790000000     0.378258   
C26      C      0.178650000000     0.619740000000     0.992990000000     0.379929   
C27      C      0.119790000000     0.619130000000     0.434950000000     0.378266   
C28      C      0.120490000000     0.620200000000     0.051970000000     0.377285   
C29      C      0.061490000000     0.619580000000     0.243280000000     0.37884    
C30      C      0.178650000000     0.619790000000     0.243830000000     0.379149   
C31      C      0.120410000000     0.620210000000     0.184970000000     0.378198   
C32      C      0.119870000000     0.619140000000     0.301990000000     0.378594   
C33      C      0.619230000000     0.061560000000     0.994330000000     0.378382   
C34      C      0.619410000000     0.178720000000     0.494810000000     0.379357   
C35      C      0.619240000000     0.120010000000     0.053030000000     0.377986   
C36      C      0.619380000000     0.120420000000     0.436010000000     0.378562   
C37      C      0.619190000000     0.061570000000     0.244570000000     0.378778   
C38      C      0.619500000000     0.178730000000     0.244320000000     0.3792     
C39      C      0.619260000000     0.120360000000     0.303010000000     0.378391   
C40      C      0.619390000000     0.120090000000     0.185990000000     0.378593   
C41      C      0.619240000000     0.928290000000     0.994220000000     0.378192   
C42      C      0.619450000000     0.811130000000     0.993680000000     0.380176   
C43      C      0.618800000000     0.869870000000     0.435490000000     0.378608   
C44      C      0.619860000000     0.869410000000     0.052510000000     0.377699   
C45      C      0.619190000000     0.928300000000     0.243940000000     0.378788   
C46      C      0.619460000000     0.811140000000     0.244230000000     0.379193   
C47      C      0.619840000000     0.869500000000     0.185510000000     0.378203   
C48      C      0.618780000000     0.869800000000     0.302530000000     0.378403   
C49      C      0.369630000000     0.311270000000     0.495300000000     0.378691   
C50      C      0.369580000000     0.428390000000     0.492880000000     0.378208   
C51      C      0.311070000000     0.369830000000     0.993020000000     0.374056   
C52      C      0.428190000000     0.369780000000     0.995130000000     0.374082   
C53      C      0.369700000000     0.311250000000     0.246250000000     0.378806   
C54      C      0.369490000000     0.428380000000     0.245180000000     0.37817    
C55      C      0.311060000000     0.369710000000     0.244760000000     0.378641   
C56      C      0.428200000000     0.369830000000     0.246400000000     0.378171   
C57      C      0.369590000000     0.678800000000     0.993170000000     0.374372   
C58      C      0.369630000000     0.561660000000     0.991980000000     0.374062   
C59      C      0.311080000000     0.620180000000     0.492250000000     0.378638   
C60      C      0.428220000000     0.620330000000     0.492780000000     0.378511   
C61      C      0.369700000000     0.678790000000     0.244040000000     0.378627   
C62      C      0.369530000000     0.561650000000     0.244700000000     0.378369   
C63      C      0.311080000000     0.620260000000     0.244500000000     0.378677   
C64      C      0.428220000000     0.620240000000     0.244330000000     0.378281   
C65      C      0.678600000000     0.369600000000     0.493710000000     0.378945   
C66      C      0.561460000000     0.369760000000     0.495520000000     0.378396   
C67      C      0.619940000000     0.311160000000     0.995050000000     0.37427    
C68      C      0.620190000000     0.428300000000     0.994360000000     0.373842   
C69      C      0.678610000000     0.369580000000     0.242800000000     0.378951   
C70      C      0.561480000000     0.369740000000     0.245450000000     0.37843    
C71      C      0.620020000000     0.311150000000     0.243930000000     0.378895   
C72      C      0.620200000000     0.428300000000     0.244260000000     0.378499   
C73      C      0.620020000000     0.678700000000     0.493340000000     0.378746   
C74      C      0.620150000000     0.561560000000     0.493990000000     0.378383   
C75      C      0.678620000000     0.620150000000     0.994150000000     0.374439   
C76      C      0.561490000000     0.620190000000     0.993250000000     0.373999   
C77      C      0.620030000000     0.678700000000     0.244450000000     0.378711   
C78      C      0.620170000000     0.561560000000     0.244110000000     0.378297   
C79      C      0.678630000000     0.620180000000     0.243960000000     0.378791   
C80      C      0.561490000000     0.620170000000     0.244460000000     0.378213   
C81      C      0.061460000000     0.370540000000     0.991740000000     0.378084   
C82      C      0.178630000000     0.370460000000     0.491650000000     0.379151   
C83      C      0.120210000000     0.370450000000     0.050240000000     0.37745    
C84      C      0.120030000000     0.370570000000     0.433220000000     0.378787   
C85      C      0.061470000000     0.370650000000     0.241430000000     0.378864   
C86      C      0.178640000000     0.370400000000     0.242180000000     0.37902    
C87      C      0.119830000000     0.370470000000     0.300250000000     0.378277   
C88      C      0.120420000000     0.370600000000     0.183230000000     0.378522   
C89      C      0.928180000000     0.370430000000     0.991200000000     0.378424   
C90      C      0.811020000000     0.370190000000     0.991510000000     0.380151   
C91      C      0.869410000000     0.370850000000     0.432780000000     0.37809    
C92      C      0.869660000000     0.369780000000     0.049800000000     0.377499   
C93      C      0.928180000000     0.370530000000     0.241290000000     0.37872    
C94      C      0.811020000000     0.370000000000     0.241250000000     0.379087   
C95      C      0.869570000000     0.369760000000     0.182770000000     0.378407   
C96      C      0.869480000000     0.370830000000     0.299790000000     0.378232   
C97      C      0.869880000000     0.343170000000     0.382320000000    -0.00290432 
C98      C      0.869380000000     0.371000000000     0.398760000000    -0.0892553  
C99      C      0.868880000000     0.398850000000     0.382330000000    -0.00260778 
C100     C      0.868910000000     0.398850000000     0.350220000000    -0.00261431 
C101     C      0.869430000000     0.370990000000     0.333810000000    -0.089368   
C102     C      0.869900000000     0.343170000000     0.350260000000    -0.00279863 
C103     C      0.869980000000     0.397450000000     0.100260000000    -0.00291362 
C104     C      0.869660000000     0.369620000000     0.083820000000    -0.0882304  
C105     C      0.869300000000     0.341760000000     0.100220000000    -0.0026653  
C106     C      0.869280000000     0.341750000000     0.132330000000    -0.00223199 
C107     C      0.869600000000     0.369610000000     0.148750000000    -0.0892904  
C108     C      0.869950000000     0.397440000000     0.132320000000    -0.00235665 
C109     C      0.978780000000     0.342780000000     0.241370000000    -0.00252096 
C110     C      0.962280000000     0.370610000000     0.241290000000    -0.0890337  
C111     C      0.978720000000     0.398470000000     0.241220000000    -0.00247079 
C112     C      0.010890000000     0.398500000000     0.241230000000    -0.0024334  
C113     C      0.027370000000     0.370660000000     0.241340000000    -0.0891439  
C114     C      0.010930000000     0.342810000000     0.241400000000    -0.00237169 
C115     C      0.119950000000     0.398390000000     0.382750000000    -0.00246224 
C116     C      0.119960000000     0.370570000000     0.399200000000    -0.0894691  
C117     C      0.119880000000     0.342700000000     0.382800000000    -0.00260347 
C118     C      0.119820000000     0.342650000000     0.350720000000    -0.00276259 
C119     C      0.119810000000     0.370480000000     0.334270000000    -0.0892281  
C120     C      0.119870000000     0.398350000000     0.350670000000    -0.00275722 
C121     C      0.120350000000     0.342660000000     0.100720000000    -0.00273602 
C122     C      0.120320000000     0.370470000000     0.084260000000    -0.0883371  
C123     C      0.120400000000     0.398350000000     0.100660000000    -0.00284602 
C124     C      0.120490000000     0.398410000000     0.132750000000    -0.00239634 
C125     C      0.120470000000     0.370590000000     0.149210000000    -0.0893542  
C126     C      0.120420000000     0.342710000000     0.132810000000    -0.00242025 
C127     C      0.010880000000     0.398370000000     0.991270000000    -0.00280876 
C128     C      0.027370000000     0.370530000000     0.991630000000    -0.0895472  
C129     C      0.010920000000     0.342680000000     0.491810000000    -0.00246403 
C130     C      0.978770000000     0.342650000000     0.491640000000    -0.0024956  
C131     C      0.962280000000     0.370480000000     0.991290000000    -0.0895641  
C132     C      0.978720000000     0.398340000000     0.991110000000    -0.0027547  
C133     C      0.728420000000     0.388980000000     0.221970000000    -0.000580888
C134     C      0.712440000000     0.369510000000     0.242130000000    -0.0897758  
C135     C      0.729030000000     0.350120000000     0.261880000000    -0.000651284
C136     C      0.761170000000     0.349870000000     0.261150000000    -0.00105347 
C137     C      0.777170000000     0.369800000000     0.241450000000    -0.0894622  
C138     C      0.760590000000     0.389530000000     0.222030000000    -0.00090145 
C139     C      0.620210000000     0.478890000000     0.272000000000    -0.00258638 
C140     C      0.620240000000     0.462390000000     0.244250000000    -0.089364   
C141     C      0.620280000000     0.478820000000     0.216430000000    -0.00255981 
C142     C      0.620280000000     0.510980000000     0.216360000000    -0.00263043 
C143     C      0.620210000000     0.527470000000     0.244110000000    -0.0892575  
C144     C      0.620180000000     0.511040000000     0.271930000000    -0.00265707 
C145     C      0.728970000000     0.389530000000     0.012510000000     0.00258345 
C146     C      0.712440000000     0.369740000000     0.993110000000    -0.0929335  
C147     C      0.728480000000     0.350150000000     0.473110000000    -0.00120948 
C148     C      0.760650000000     0.349940000000     0.472930000000    -0.000901016
C149     C      0.777170000000     0.370110000000     0.991960000000    -0.0951617  
C150     C      0.761110000000     0.390100000000     0.011550000000     0.0042574  
C151     C      0.620140000000     0.478770000000     0.466410000000    -0.00267308 
C152     C      0.620230000000     0.462390000000     0.994230000000    -0.0929044  
C153     C      0.620320000000     0.478930000000     0.021990000000     0.00127238 
C154     C      0.620310000000     0.511080000000     0.021920000000     0.00134539 
C155     C      0.620200000000     0.527460000000     0.994100000000    -0.0928298  
C156     C      0.620110000000     0.510930000000     0.466350000000    -0.00262069 
C157     C      0.478810000000     0.620210000000     0.216600000000    -0.00264683 
C158     C      0.462320000000     0.620240000000     0.244360000000    -0.0891761  
C159     C      0.478750000000     0.620260000000     0.272180000000    -0.00268872 
C160     C      0.510910000000     0.620260000000     0.272230000000    -0.00262444 
C161     C      0.527390000000     0.620200000000     0.244480000000    -0.0891716  
C162     C      0.510960000000     0.620170000000     0.216660000000    -0.00266564 
C163     C      0.478680000000     0.620280000000     0.020730000000     0.0013984  
C164     C      0.462320000000     0.620330000000     0.992900000000    -0.0928645  
C165     C      0.478870000000     0.620360000000     0.465160000000    -0.00266473 
C166     C      0.511030000000     0.620330000000     0.465250000000    -0.00265354 
C167     C      0.527390000000     0.620240000000     0.993080000000    -0.0928225  
C168     C      0.510830000000     0.620220000000     0.020820000000     0.00127678 
C169     C      0.260650000000     0.389740000000     0.263400000000    -0.00111596 
C170     C      0.277210000000     0.369830000000     0.244160000000    -0.0895784  
C171     C      0.261210000000     0.350150000000     0.224210000000    -0.00134588 
C172     C      0.229050000000     0.349990000000     0.223920000000    -0.00081912 
C173     C      0.212490000000     0.370290000000     0.242760000000    -0.0897871  
C174     C      0.228500000000     0.390350000000     0.262310000000    -0.000851016
C175     C      0.478940000000     0.369460000000     0.274150000000    -0.0026656  
C176     C      0.462300000000     0.369820000000     0.246460000000    -0.0891701  
C177     C      0.478590000000     0.370140000000     0.218580000000    -0.00265961 
C178     C      0.510700000000     0.370110000000     0.218340000000    -0.00275058 
C179     C      0.527380000000     0.369770000000     0.245980000000    -0.0891901  
C180     C      0.511140000000     0.369440000000     0.273910000000    -0.00258656 
C181     C      0.369590000000     0.478840000000     0.217170000000    -0.00268018 
C182     C      0.369450000000     0.462480000000     0.245000000000    -0.0891535  
C183     C      0.369300000000     0.479040000000     0.272740000000    -0.00262528 
C184     C      0.369300000000     0.511190000000     0.272660000000    -0.00264117 
C185     C      0.369480000000     0.527550000000     0.244830000000    -0.0891881  
C186     C      0.369620000000     0.510990000000     0.217080000000    -0.00273042 
C187     C      0.260820000000     0.390130000000     0.011730000000     0.00252305 
C188     C      0.277220000000     0.370100000000     0.992460000000    -0.0928304  
C189     C      0.261040000000     0.350280000000     0.472800000000    -0.00136409 
C190     C      0.228870000000     0.350050000000     0.472870000000    -0.000842031
C191     C      0.212480000000     0.370420000000     0.991800000000    -0.0951407  
C192     C      0.228680000000     0.390670000000     0.011010000000     0.00419737 
C193     C      0.478640000000     0.369300000000     0.023350000000     0.00140441 
C194     C      0.462290000000     0.369780000000     0.995490000000    -0.0928096  
C195     C      0.478860000000     0.370240000000     0.467790000000    -0.00275806 
C196     C      0.510970000000     0.370240000000     0.467890000000    -0.0026764  
C197     C      0.527370000000     0.369770000000     0.995700000000    -0.0929286  
C198     C      0.510850000000     0.369300000000     0.023460000000     0.00140125 
C199     C      0.369070000000     0.478740000000     0.464490000000    -0.00262779 
C200     C      0.369580000000     0.462490000000     0.992410000000    -0.0927726  
C201     C      0.370110000000     0.479160000000     0.020050000000     0.00113327 
C202     C      0.370130000000     0.511270000000     0.019830000000     0.00124852 
C203     C      0.369620000000     0.527560000000     0.991950000000    -0.0929314  
C204     C      0.369090000000     0.510930000000     0.464270000000    -0.00251905 
C205     C      0.600040000000     0.728720000000     0.224810000000    -0.000963971
C206     C      0.619800000000     0.712550000000     0.244540000000    -0.0896203  
C207     C      0.639400000000     0.728960000000     0.264230000000    -0.001305   
C208     C      0.639660000000     0.761120000000     0.263760000000    -0.000834352
C209     C      0.619540000000     0.777290000000     0.244380000000    -0.0897501  
C210     C      0.599520000000     0.760880000000     0.225120000000    -0.000880482
C211     C      0.599440000000     0.760850000000     0.012630000000     0.00428951 
C212     C      0.619510000000     0.777280000000     0.993450000000    -0.0952691  
C213     C      0.639670000000     0.761130000000     0.474100000000    -0.00075804 
C214     C      0.639410000000     0.728970000000     0.473580000000    -0.001354   
C215     C      0.619760000000     0.712540000000     0.993210000000    -0.0929842  
C216     C      0.599950000000     0.728700000000     0.012910000000     0.00256725 
C217     C      0.646460000000     0.870400000000     0.385040000000    -0.00266336 
C218     C      0.618640000000     0.869910000000     0.401480000000    -0.089574   
C219     C      0.590780000000     0.869420000000     0.385070000000    -0.00242182 
C220     C      0.590770000000     0.869390000000     0.352960000000    -0.00268366 
C221     C      0.618630000000     0.869860000000     0.336550000000    -0.0893055  
C222     C      0.646460000000     0.870370000000     0.352980000000    -0.00282769 
C223     C      0.647870000000     0.868990000000     0.102960000000    -0.00275945 
C224     C      0.620010000000     0.869340000000     0.086540000000    -0.0882592  
C225     C      0.592180000000     0.869690000000     0.102980000000    -0.00286797 
C226     C      0.592170000000     0.869720000000     0.135040000000    -0.00246241 
C227     C      0.620000000000     0.869400000000     0.151490000000    -0.0892664  
C228     C      0.647860000000     0.869020000000     0.135070000000    -0.00226974 
C229     C      0.599670000000     0.228890000000     0.224760000000    -0.000782306
C230     C      0.619640000000     0.212580000000     0.244170000000    -0.0896076  
C231     C      0.639810000000     0.228850000000     0.263390000000    -0.0010023  
C232     C      0.639590000000     0.261000000000     0.263640000000    -0.000734101
C233     C      0.619990000000     0.277310000000     0.243870000000    -0.089694   
C234     C      0.600230000000     0.261050000000     0.224210000000    -0.000752434
C235     C      0.591300000000     0.011010000000     0.244620000000    -0.00243401 
C236     C      0.619150000000     0.027480000000     0.244450000000    -0.0891693  
C237     C      0.646990000000     0.011010000000     0.244080000000    -0.00240452 
C238     C      0.646990000000     0.978860000000     0.243880000000    -0.00242877 
C239     C      0.619150000000     0.962390000000     0.244050000000    -0.0891646  
C240     C      0.591300000000     0.978850000000     0.244420000000    -0.00242002 
C241     C      0.639750000000     0.228740000000     0.014200000000     0.00437496 
C242     C      0.619460000000     0.212570000000     0.995010000000    -0.0952351  
C243     C      0.599240000000     0.228980000000     0.475960000000    -0.000837495
C244     C      0.599730000000     0.261130000000     0.475660000000    -0.00106461 
C245     C      0.619680000000     0.277310000000     0.995200000000    -0.0928576  
C246     C      0.639480000000     0.260910000000     0.014690000000     0.00217923 
C247     C      0.647180000000     0.120440000000     0.385530000000    -0.00260545 
C248     C      0.619360000000     0.120490000000     0.401990000000    -0.0895293  
C249     C      0.591490000000     0.120540000000     0.385580000000    -0.00258951 
C250     C      0.591440000000     0.120530000000     0.353490000000    -0.00281331 
C251     C      0.619270000000     0.120440000000     0.337040000000    -0.0892261  
C252     C      0.647140000000     0.120410000000     0.353440000000    -0.00287225 
C253     C      0.591440000000     0.120050000000     0.103500000000    -0.0026716  
C254     C      0.619260000000     0.119980000000     0.087050000000    -0.0883886  
C255     C      0.647130000000     0.119940000000     0.103440000000    -0.00268814 
C256     C      0.647190000000     0.119970000000     0.135520000000    -0.00228276 
C257     C      0.619370000000     0.120040000000     0.151980000000    -0.0894148  
C258     C      0.591490000000     0.120070000000     0.135580000000    -0.00228103 
C259     C      0.591360000000     0.011000000000     0.994380000000    -0.00271361 
C260     C      0.619210000000     0.027470000000     0.994290000000    -0.0896856  
C261     C      0.647050000000     0.011000000000     0.494200000000    -0.00240022 
C262     C      0.647050000000     0.978850000000     0.494200000000    -0.00255341 
C263     C      0.619210000000     0.962390000000     0.994280000000    -0.0894592  
C264     C      0.591360000000     0.978840000000     0.994360000000    -0.00283808 
C265     C      0.228960000000     0.599790000000     0.224930000000    -0.000921115
C266     C      0.212500000000     0.619850000000     0.244100000000    -0.0897258  
C267     C      0.228620000000     0.639980000000     0.263520000000    -0.000858713
C268     C      0.260780000000     0.639690000000     0.264110000000    -0.00123894 
C269     C      0.277240000000     0.620050000000     0.244500000000    -0.0897348  
C270     C      0.261120000000     0.600280000000     0.224740000000    -0.000872857
C271     C      0.228610000000     0.639930000000     0.473270000000    -0.000799946
C272     C      0.212500000000     0.619770000000     0.992660000000    -0.0951293  
C273     C      0.228970000000     0.599640000000     0.011740000000     0.00423644 
C274     C      0.261120000000     0.600110000000     0.011910000000     0.00261965 
C275     C      0.277240000000     0.619920000000     0.992190000000    -0.0929621  
C276     C      0.260780000000     0.639620000000     0.472640000000    -0.00133031 
C277     C      0.120200000000     0.591120000000     0.384520000000    -0.00255371 
C278     C      0.119710000000     0.618970000000     0.400940000000    -0.089298   
C279     C      0.119230000000     0.646810000000     0.384500000000    -0.00285757 
C280     C      0.119260000000     0.646810000000     0.352440000000    -0.00267056 
C281     C      0.119770000000     0.618980000000     0.336000000000    -0.0894866  
C282     C      0.120220000000     0.591120000000     0.352410000000    -0.00246031 
C283     C      0.120260000000     0.592520000000     0.102440000000    -0.00304169 
C284     C      0.120600000000     0.620350000000     0.086000000000    -0.0881262  
C285     C      0.120950000000     0.648210000000     0.102410000000    -0.00286766 
C286     C      0.120920000000     0.648210000000     0.134530000000    -0.00219732 
C287     C      0.120540000000     0.620360000000     0.150950000000    -0.0893722  
C288     C      0.120230000000     0.592530000000     0.134500000000    -0.0024123  
C289     C      0.728810000000     0.639610000000     0.224080000000    -0.00120868 
C290     C      0.712470000000     0.620010000000     0.243820000000    -0.0897527  
C291     C      0.728700000000     0.600270000000     0.263530000000    -0.000968789
C292     C      0.760860000000     0.599780000000     0.263140000000    -0.000866018
C293     C      0.777210000000     0.619800000000     0.243830000000    -0.0897478  
C294     C      0.760980000000     0.639900000000     0.224480000000    -0.000850839
C295     C      0.978780000000     0.591690000000     0.243690000000    -0.00249564 
C296     C      0.962310000000     0.619540000000     0.243800000000    -0.0890958  
C297     C      0.978780000000     0.647390000000     0.243690000000    -0.00251041 
C298     C      0.010930000000     0.647390000000     0.243480000000    -0.00236566 
C299     C      0.027400000000     0.619550000000     0.243380000000    -0.0892219  
C300     C      0.010940000000     0.591700000000     0.243480000000    -0.00236494 
C301     C      0.760850000000     0.599690000000     0.475060000000    -0.000887144
C302     C      0.777210000000     0.619750000000     0.994320000000    -0.0951442  
C303     C      0.760980000000     0.639870000000     0.013650000000     0.00422669 
C304     C      0.728810000000     0.639570000000     0.014060000000     0.00234666 
C305     C      0.712470000000     0.619940000000     0.994360000000    -0.0929991  
C306     C      0.728700000000     0.600170000000     0.474690000000    -0.000946942
C307     C      0.869040000000     0.648190000000     0.385060000000    -0.00264767 
C308     C      0.869410000000     0.620330000000     0.401470000000    -0.0892594  
C309     C      0.869790000000     0.592500000000     0.385030000000    -0.00279596 
C310     C      0.869820000000     0.592500000000     0.352970000000    -0.0028104  
C311     C      0.869470000000     0.620330000000     0.336530000000    -0.0892454  
C312     C      0.869070000000     0.648190000000     0.352940000000    -0.00266133 
C313     C      0.869230000000     0.591090000000     0.102940000000    -0.00265104 
C314     C      0.869700000000     0.618950000000     0.086530000000    -0.0884385  
C315     C      0.870140000000     0.646780000000     0.102970000000    -0.00285787 
C316     C      0.870120000000     0.646780000000     0.135030000000    -0.00238045 
C317     C      0.869650000000     0.618950000000     0.151470000000    -0.0894818  
C318     C      0.869200000000     0.591090000000     0.135050000000    -0.00217472 
C319     C      0.978780000000     0.647410000000     0.993890000000    -0.00277043 
C320     C      0.962310000000     0.619570000000     0.993890000000    -0.0895671  
C321     C      0.978780000000     0.591720000000     0.493890000000    -0.00251181 
C322     C      0.010940000000     0.591730000000     0.493880000000    -0.00245144 
C323     C      0.027400000000     0.619580000000     0.993880000000    -0.0895979  
C324     C      0.010930000000     0.647420000000     0.993890000000    -0.00279962 
C325     C      0.349930000000     0.228950000000     0.265940000000    -0.000838959
C326     C      0.370220000000     0.212660000000     0.246850000000    -0.0897242  
C327     C      0.390400000000     0.228960000000     0.227650000000    -0.000860355
C328     C      0.389870000000     0.261110000000     0.227110000000    -0.000989745
C329     C      0.369930000000     0.277400000000     0.246560000000    -0.089647   
C330     C      0.350170000000     0.261120000000     0.266200000000    -0.00133824 
C331     C      0.349900000000     0.229100000000     0.015590000000     0.00425262 
C332     C      0.370250000000     0.212690000000     0.996660000000    -0.0951464  
C333     C      0.390490000000     0.228870000000     0.477430000000    -0.00090792 
C334     C      0.389940000000     0.261010000000     0.476670000000    -0.000941474
C335     C      0.369930000000     0.277430000000     0.995930000000    -0.0929523  
C336     C      0.350130000000     0.261270000000     0.015630000000     0.00225422 
C337     C      0.398240000000     0.120320000000     0.355680000000    -0.00268801 
C338     C      0.370420000000     0.120240000000     0.339230000000    -0.0892015  
C339     C      0.342550000000     0.120250000000     0.355630000000    -0.00271058 
C340     C      0.342490000000     0.120350000000     0.387710000000    -0.00270735 
C341     C      0.370310000000     0.120410000000     0.404160000000    -0.0893345  
C342     C      0.398190000000     0.120400000000     0.387760000000    -0.00269832 
C343     C      0.342540000000     0.120270000000     0.105620000000    -0.00284918 
C344     C      0.370410000000     0.120270000000     0.089230000000    -0.0882581  
C345     C      0.398230000000     0.120350000000     0.105680000000    -0.00276329 
C346     C      0.398180000000     0.120410000000     0.137760000000    -0.00229828 
C347     C      0.370310000000     0.120420000000     0.154160000000    -0.0893765  
C348     C      0.342490000000     0.120360000000     0.137710000000    -0.00229531 
C349     C      0.390190000000     0.760950000000     0.263370000000    -0.000817263
C350     C      0.370170000000     0.777370000000     0.244120000000    -0.0898524  
C351     C      0.350070000000     0.761210000000     0.224710000000    -0.000816573
C352     C      0.350360000000     0.729040000000     0.224210000000    -0.00125014 
C353     C      0.369950000000     0.712630000000     0.243900000000    -0.089664   
C354     C      0.389690000000     0.728800000000     0.263660000000    -0.000995543
C355     C      0.342590000000     0.978950000000     0.245520000000    -0.00241908 
C356     C      0.370430000000     0.962480000000     0.245390000000    -0.0890835  
C357     C      0.398280000000     0.978930000000     0.245670000000    -0.00240578 
C358     C      0.398290000000     0.011090000000     0.246070000000    -0.00251836 
C359     C      0.370440000000     0.027550000000     0.246180000000    -0.0889866  
C360     C      0.342590000000     0.011100000000     0.245900000000    -0.00252607 
C361     C      0.349940000000     0.760980000000     0.013410000000     0.00427306 
C362     C      0.370080000000     0.777380000000     0.994260000000    -0.095088   
C363     C      0.390070000000     0.761200000000     0.474770000000    -0.000925177
C364     C      0.389510000000     0.729050000000     0.474020000000    -0.000971271
C365     C      0.369750000000     0.712640000000     0.993550000000    -0.0930239  
C366     C      0.350160000000     0.728820000000     0.013460000000     0.00229508 
C367     C      0.397450000000     0.870060000000     0.385730000000    -0.00274316 
C368     C      0.369610000000     0.869760000000     0.402170000000    -0.0894334  
C369     C      0.341760000000     0.869320000000     0.385750000000    -0.00250947 
C370     C      0.341760000000     0.869190000000     0.353640000000    -0.00274564 
C371     C      0.369620000000     0.869500000000     0.337230000000    -0.0891279  
C372     C      0.397450000000     0.869930000000     0.353670000000    -0.00287485 
C373     C      0.398860000000     0.869410000000     0.135750000000    -0.00223871 
C374     C      0.371000000000     0.869930000000     0.152170000000    -0.0893928  
C375     C      0.343170000000     0.870340000000     0.135730000000    -0.00237519 
C376     C      0.343160000000     0.870220000000     0.103670000000    -0.00290605 
C377     C      0.370990000000     0.869690000000     0.087230000000    -0.0883494  
C378     C      0.398850000000     0.869280000000     0.103640000000    -0.00265148 
C379     C      0.342580000000     0.978970000000     0.995230000000    -0.0027325  
C380     C      0.370420000000     0.962490000000     0.995280000000    -0.0896074  
C381     C      0.398270000000     0.978950000000     0.495770000000    -0.00241159 
C382     C      0.398280000000     0.011100000000     0.496200000000    -0.00261027 
C383     C      0.370430000000     0.027570000000     0.996140000000    -0.0893552  
C384     C      0.342580000000     0.011120000000     0.995650000000    -0.00293626 
C385     C      0.370390000000     0.928400000000     0.494940000000     0.378709   
C386     C      0.370170000000     0.811230000000     0.994520000000     0.379809   
C387     C      0.370830000000     0.869630000000     0.553210000000     0.378494   
C388     C      0.369760000000     0.869860000000     0.936190000000     0.378135   
C389     C      0.370400000000     0.928380000000     0.745040000000     0.37875    
C390     C      0.370220000000     0.811220000000     0.744340000000     0.379407   
C391     C      0.369780000000     0.869490000000     0.803200000000     0.378146   
C392     C      0.370850000000     0.869980000000     0.686190000000     0.378535   
C393     C      0.370420000000     0.061670000000     0.496480000000     0.378549   
C394     C      0.370290000000     0.178840000000     0.496830000000     0.379127   
C395     C      0.370300000000     0.120430000000     0.938180000000     0.377927   
C396     C      0.370420000000     0.120220000000     0.555200000000     0.37855    
C397     C      0.370420000000     0.061650000000     0.746480000000     0.378617   
C398     C      0.370280000000     0.178810000000     0.746860000000     0.37897    
C399     C      0.370290000000     0.120420000000     0.688180000000     0.378306   
C400     C      0.370430000000     0.120180000000     0.805200000000     0.378345   
C401     C      0.928220000000     0.619580000000     0.493900000000     0.378736   
C402     C      0.811060000000     0.619720000000     0.994210000000     0.379999   
C403     C      0.869690000000     0.619110000000     0.552520000000     0.378544   
C404     C      0.869440000000     0.620170000000     0.935500000000     0.378033   
C405     C      0.928220000000     0.619560000000     0.743970000000     0.378694   
C406     C      0.811060000000     0.619740000000     0.743900000000     0.379192   
C407     C      0.869520000000     0.620170000000     0.802500000000     0.378358   
C408     C      0.869620000000     0.619110000000     0.685480000000     0.378449   
C409     C      0.061490000000     0.619600000000     0.493790000000     0.378798   
C410     C      0.178650000000     0.619740000000     0.492990000000     0.379162   
C411     C      0.119790000000     0.619130000000     0.934950000000     0.377964   
C412     C      0.120490000000     0.620200000000     0.551970000000     0.378013   
C413     C      0.061490000000     0.619580000000     0.743290000000     0.378828   
C414     C      0.178650000000     0.619790000000     0.743830000000     0.379152   
C415     C      0.120410000000     0.620210000000     0.684970000000     0.378157   
C416     C      0.119870000000     0.619140000000     0.801990000000     0.37848    
C417     C      0.619230000000     0.061560000000     0.494330000000     0.378923   
C418     C      0.619410000000     0.178720000000     0.994810000000     0.380124   
C419     C      0.619240000000     0.120010000000     0.553030000000     0.378716   
C420     C      0.619380000000     0.120420000000     0.936010000000     0.378154   
C421     C      0.619190000000     0.061570000000     0.744570000000     0.378767   
C422     C      0.619500000000     0.178730000000     0.744320000000     0.379207   
C423     C      0.619260000000     0.120360000000     0.803010000000     0.378453   
C424     C      0.619390000000     0.120090000000     0.685990000000     0.378475   
C425     C      0.619240000000     0.928290000000     0.494220000000     0.378731   
C426     C      0.619450000000     0.811130000000     0.493670000000     0.379411   
C427     C      0.618800000000     0.869870000000     0.935490000000     0.378302   
C428     C      0.619860000000     0.869410000000     0.552510000000     0.37844    
C429     C      0.619190000000     0.928300000000     0.743940000000     0.378775   
C430     C      0.619460000000     0.811140000000     0.744230000000     0.379187   
C431     C      0.619840000000     0.869500000000     0.685510000000     0.37803    
C432     C      0.618780000000     0.869800000000     0.802530000000     0.37842    
C433     C      0.369630000000     0.311270000000     0.995300000000     0.374203   
C434     C      0.369580000000     0.428390000000     0.992890000000     0.373829   
C435     C      0.311070000000     0.369830000000     0.493020000000     0.378578   
C436     C      0.428190000000     0.369780000000     0.495130000000     0.378429   
C437     C      0.369700000000     0.311250000000     0.746250000000     0.378525   
C438     C      0.369490000000     0.428380000000     0.745180000000     0.37818    
C439     C      0.311060000000     0.369710000000     0.744760000000     0.378647   
C440     C      0.428200000000     0.369830000000     0.746400000000     0.378173   
C441     C      0.369590000000     0.678800000000     0.493170000000     0.378894   
C442     C      0.369630000000     0.561660000000     0.491980000000     0.378479   
C443     C      0.311080000000     0.620180000000     0.992250000000     0.374084   
C444     C      0.428220000000     0.620330000000     0.992780000000     0.374141   
C445     C      0.369700000000     0.678790000000     0.744040000000     0.378644   
C446     C      0.369530000000     0.561650000000     0.744700000000     0.378385   
C447     C      0.311080000000     0.620260000000     0.744500000000     0.378687   
C448     C      0.428220000000     0.620240000000     0.744330000000     0.378291   
C449     C      0.678600000000     0.369600000000     0.993710000000     0.374126   
C450     C      0.561460000000     0.369760000000     0.995520000000     0.374058   
C451     C      0.619940000000     0.311160000000     0.495050000000     0.37876    
C452     C      0.620190000000     0.428300000000     0.494360000000     0.378212   
C453     C      0.678610000000     0.369580000000     0.742800000000     0.378954   
C454     C      0.561480000000     0.369740000000     0.745450000000     0.37845    
C455     C      0.620020000000     0.311150000000     0.743940000000     0.378901   
C456     C      0.620200000000     0.428300000000     0.744260000000     0.37851    
C457     C      0.620020000000     0.678700000000     0.993340000000     0.374258   
C458     C      0.620150000000     0.561560000000     0.993990000000     0.374056   
C459     C      0.678620000000     0.620150000000     0.494150000000     0.378897   
C460     C      0.561490000000     0.620190000000     0.493250000000     0.378352   
C461     C      0.620030000000     0.678700000000     0.744450000000     0.378721   
C462     C      0.620170000000     0.561560000000     0.744110000000     0.378319   
C463     C      0.678630000000     0.620180000000     0.743960000000     0.378802   
C464     C      0.561490000000     0.620170000000     0.744460000000     0.378236   
C465     C      0.061460000000     0.370540000000     0.491740000000     0.378614   
C466     C      0.178630000000     0.370460000000     0.991650000000     0.379924   
C467     C      0.120210000000     0.370450000000     0.550240000000     0.378176   
C468     C      0.120030000000     0.370570000000     0.933220000000     0.378417   
C469     C      0.061470000000     0.370650000000     0.741430000000     0.378851   
C470     C      0.178640000000     0.370400000000     0.742180000000     0.379026   
C471     C      0.119830000000     0.370470000000     0.800250000000     0.378291   
C472     C      0.120420000000     0.370600000000     0.683230000000     0.378356   
C473     C      0.928180000000     0.370430000000     0.491200000000     0.378962   
C474     C      0.811020000000     0.370190000000     0.491510000000     0.379366   
C475     C      0.869410000000     0.370850000000     0.932780000000     0.377778   
C476     C      0.869660000000     0.369780000000     0.549800000000     0.37823    
C477     C      0.928180000000     0.370530000000     0.741300000000     0.378708   
C478     C      0.811020000000     0.370000000000     0.741250000000     0.379107   
C479     C      0.869570000000     0.369760000000     0.682770000000     0.378327   
C480     C      0.869480000000     0.370830000000     0.799790000000     0.378245   
C481     C      0.869880000000     0.343170000000     0.882320000000    -0.00296444 
C482     C      0.869380000000     0.371000000000     0.898760000000    -0.0891818  
C483     C      0.868880000000     0.398850000000     0.882340000000    -0.00265824 
C484     C      0.868910000000     0.398850000000     0.850220000000    -0.00259939 
C485     C      0.869430000000     0.370990000000     0.833810000000    -0.0893925  
C486     C      0.869900000000     0.343170000000     0.850260000000    -0.0028024  
C487     C      0.869980000000     0.397450000000     0.600260000000    -0.00278278 
C488     C      0.869660000000     0.369620000000     0.583820000000    -0.0892628  
C489     C      0.869300000000     0.341760000000     0.600220000000    -0.0025647  
C490     C      0.869280000000     0.341750000000     0.632330000000    -0.00260482 
C491     C      0.869600000000     0.369610000000     0.648750000000    -0.0892625  
C492     C      0.869950000000     0.397440000000     0.632320000000    -0.00272478 
C493     C      0.978780000000     0.342780000000     0.741370000000    -0.00258166 
C494     C      0.962280000000     0.370610000000     0.741300000000    -0.0890987  
C495     C      0.978720000000     0.398470000000     0.741220000000    -0.00251222 
C496     C      0.010890000000     0.398500000000     0.741230000000    -0.00247515 
C497     C      0.027370000000     0.370660000000     0.741330000000    -0.0892085  
C498     C      0.010930000000     0.342810000000     0.741400000000    -0.00243275 
C499     C      0.119950000000     0.398390000000     0.882750000000    -0.00251411 
C500     C      0.119960000000     0.370570000000     0.899200000000    -0.0893952  
C501     C      0.119880000000     0.342700000000     0.882800000000    -0.00267078 
C502     C      0.119820000000     0.342650000000     0.850710000000    -0.00277024 
C503     C      0.119810000000     0.370480000000     0.834270000000    -0.0892506  
C504     C      0.119870000000     0.398350000000     0.850670000000    -0.00274735 
C505     C      0.120350000000     0.342660000000     0.600720000000    -0.00262733 
C506     C      0.120320000000     0.370470000000     0.584260000000    -0.0893643  
C507     C      0.120400000000     0.398350000000     0.600660000000    -0.00269982 
C508     C      0.120490000000     0.398410000000     0.632750000000    -0.00278056 
C509     C      0.120470000000     0.370590000000     0.649200000000    -0.0892227  
C510     C      0.120420000000     0.342710000000     0.632810000000    -0.00282998 
C511     C      0.010880000000     0.398370000000     0.491270000000    -0.00251613 
C512     C      0.027370000000     0.370530000000     0.491630000000    -0.0891982  
C513     C      0.010920000000     0.342680000000     0.991810000000    -0.00277264 
C514     C      0.978770000000     0.342650000000     0.991640000000    -0.00280929 
C515     C      0.962280000000     0.370480000000     0.491290000000    -0.0892234  
C516     C      0.978720000000     0.398340000000     0.491110000000    -0.00245753 
C517     C      0.728420000000     0.388980000000     0.721970000000    -0.000618763
C518     C      0.712440000000     0.369510000000     0.742130000000    -0.0897829  
C519     C      0.729030000000     0.350120000000     0.761880000000    -0.000700484
C520     C      0.761170000000     0.349870000000     0.761150000000    -0.00104977 
C521     C      0.777170000000     0.369800000000     0.741450000000    -0.0895119  
C522     C      0.760590000000     0.389530000000     0.722030000000    -0.000910008
C523     C      0.620210000000     0.478890000000     0.772000000000    -0.00260114 
C524     C      0.620240000000     0.462390000000     0.744250000000    -0.0893551  
C525     C      0.620280000000     0.478820000000     0.716430000000    -0.00257784 
C526     C      0.620280000000     0.510980000000     0.716360000000    -0.00262837 
C527     C      0.620210000000     0.527470000000     0.744110000000    -0.0892821  
C528     C      0.620180000000     0.511040000000     0.771930000000    -0.00259759 
C529     C      0.728970000000     0.389530000000     0.512510000000    -0.000925451
C530     C      0.712440000000     0.369740000000     0.493110000000    -0.0898086  
C531     C      0.728480000000     0.350150000000     0.973110000000    -0.00171738 
C532     C      0.760650000000     0.349940000000     0.972940000000     0.000131631
C533     C      0.777170000000     0.370110000000     0.491960000000    -0.0898095  
C534     C      0.761110000000     0.390100000000     0.511550000000    -0.000886386
C535     C      0.620140000000     0.478770000000     0.966420000000    -0.00245183 
C536     C      0.620230000000     0.462390000000     0.494230000000    -0.0892319  
C537     C      0.620320000000     0.478930000000     0.521990000000    -0.00273496 
C538     C      0.620310000000     0.511080000000     0.521920000000    -0.0025776  
C539     C      0.620200000000     0.527460000000     0.494100000000    -0.0892651  
C540     C      0.620110000000     0.510930000000     0.966350000000    -0.00255091 
C541     C      0.478810000000     0.620210000000     0.716600000000    -0.00267989 
C542     C      0.462320000000     0.620240000000     0.744360000000    -0.0891694  
C543     C      0.478750000000     0.620260000000     0.772180000000    -0.00268758 
C544     C      0.510910000000     0.620260000000     0.772230000000    -0.00260398 
C545     C      0.527390000000     0.620200000000     0.744480000000    -0.0891941  
C546     C      0.510960000000     0.620170000000     0.716660000000    -0.0026254  
C547     C      0.478680000000     0.620280000000     0.520730000000    -0.00258792 
C548     C      0.462320000000     0.620330000000     0.492900000000    -0.0892739  
C549     C      0.478870000000     0.620360000000     0.965160000000    -0.00249845 
C550     C      0.511030000000     0.620330000000     0.965250000000    -0.00254204 
C551     C      0.527390000000     0.620240000000     0.493080000000    -0.089197   
C552     C      0.510830000000     0.620220000000     0.520820000000    -0.00269524 
C553     C      0.260650000000     0.389740000000     0.763400000000    -0.00112415 
C554     C      0.277210000000     0.369830000000     0.744160000000    -0.0895938  
C555     C      0.261210000000     0.350150000000     0.724210000000    -0.0013795  
C556     C      0.229050000000     0.349990000000     0.723920000000    -0.000843523
C557     C      0.212490000000     0.370290000000     0.742760000000    -0.0898219  
C558     C      0.228500000000     0.390350000000     0.762310000000    -0.00085257 
C559     C      0.478940000000     0.369460000000     0.774150000000    -0.00269153 
C560     C      0.462300000000     0.369820000000     0.746460000000    -0.0891496  
C561     C      0.478590000000     0.370140000000     0.718580000000    -0.00269496 
C562     C      0.510700000000     0.370110000000     0.718340000000    -0.00271652 
C563     C      0.527380000000     0.369770000000     0.745970000000    -0.0892067  
C564     C      0.511140000000     0.369440000000     0.773910000000    -0.0025815  
C565     C      0.369590000000     0.478840000000     0.717170000000    -0.0027204  
C566     C      0.369450000000     0.462480000000     0.745010000000    -0.0891545  
C567     C      0.369300000000     0.479040000000     0.772740000000    -0.00258388 
C568     C      0.369300000000     0.511190000000     0.772660000000    -0.0026447  
C569     C      0.369480000000     0.527550000000     0.744830000000    -0.0891906  
C570     C      0.369620000000     0.510990000000     0.717080000000    -0.00272268 
C571     C      0.260820000000     0.390130000000     0.511730000000    -0.0010462  
C572     C      0.277220000000     0.370100000000     0.492460000000    -0.0895555  
C573     C      0.261040000000     0.350280000000     0.972800000000    -0.0017793  
C574     C      0.228870000000     0.350050000000     0.972870000000     8.80655e-05
C575     C      0.212480000000     0.370420000000     0.491800000000    -0.0898345  
C576     C      0.228680000000     0.390670000000     0.511010000000    -0.000882785
C577     C      0.478640000000     0.369300000000     0.523350000000    -0.00255617 
C578     C      0.462290000000     0.369780000000     0.495500000000    -0.089242   
C579     C      0.478860000000     0.370240000000     0.967790000000    -0.00260106 
C580     C      0.510970000000     0.370240000000     0.967890000000    -0.0024952  
C581     C      0.527370000000     0.369770000000     0.495700000000    -0.089334   
C582     C      0.510850000000     0.369300000000     0.523460000000    -0.00261982 
C583     C      0.369070000000     0.478740000000     0.964490000000    -0.00252472 
C584     C      0.369580000000     0.462490000000     0.492410000000    -0.0891351  
C585     C      0.370110000000     0.479160000000     0.520050000000    -0.00283154 
C586     C      0.370130000000     0.511270000000     0.519830000000    -0.00266485 
C587     C      0.369620000000     0.527560000000     0.491960000000    -0.0893176  
C588     C      0.369090000000     0.510930000000     0.964270000000    -0.00239385 
C589     C      0.600040000000     0.728720000000     0.724810000000    -0.00098953 
C590     C      0.619800000000     0.712550000000     0.744540000000    -0.0896397  
C591     C      0.639400000000     0.728960000000     0.764230000000    -0.00132106 
C592     C      0.639660000000     0.761120000000     0.763760000000    -0.000847377
C593     C      0.619540000000     0.777290000000     0.744380000000    -0.0897825  
C594     C      0.599520000000     0.760880000000     0.725120000000    -0.000902736
C595     C      0.599440000000     0.760850000000     0.512630000000    -0.000799584
C596     C      0.619510000000     0.777280000000     0.493450000000    -0.0899655  
C597     C      0.639670000000     0.761130000000     0.974100000000     0.000195497
C598     C      0.639410000000     0.728970000000     0.973580000000    -0.00179251 
C599     C      0.619760000000     0.712540000000     0.493210000000    -0.0897165  
C600     C      0.599950000000     0.728700000000     0.512910000000    -0.00101333 
C601     C      0.646460000000     0.870400000000     0.885040000000    -0.00271643 
C602     C      0.618640000000     0.869910000000     0.901480000000    -0.0895127  
C603     C      0.590780000000     0.869420000000     0.885070000000    -0.00245172 
C604     C      0.590770000000     0.869390000000     0.852960000000    -0.00267608 
C605     C      0.618630000000     0.869860000000     0.836550000000    -0.0893214  
C606     C      0.646460000000     0.870370000000     0.852980000000    -0.00283531 
C607     C      0.647870000000     0.868990000000     0.602960000000    -0.00263121 
C608     C      0.620010000000     0.869340000000     0.586540000000    -0.0893058  
C609     C      0.592180000000     0.869690000000     0.602980000000    -0.00271262 
C610     C      0.592170000000     0.869720000000     0.635040000000    -0.0028704  
C611     C      0.620000000000     0.869400000000     0.651480000000    -0.089126   
C612     C      0.647860000000     0.869020000000     0.635070000000    -0.00269242 
C613     C      0.599670000000     0.228890000000     0.724760000000    -0.000799645
C614     C      0.619640000000     0.212580000000     0.744170000000    -0.0896501  
C615     C      0.639810000000     0.228850000000     0.763390000000    -0.000996244
C616     C      0.639590000000     0.261000000000     0.763640000000    -0.00078536 
C617     C      0.619990000000     0.277310000000     0.743870000000    -0.0897028  
C618     C      0.600230000000     0.261050000000     0.724210000000    -0.000782011
C619     C      0.591300000000     0.011010000000     0.744620000000    -0.00247487 
C620     C      0.619150000000     0.027480000000     0.744450000000    -0.0892332  
C621     C      0.646990000000     0.011010000000     0.744080000000    -0.00246522 
C622     C      0.646990000000     0.978860000000     0.743880000000    -0.00248961 
C623     C      0.619150000000     0.962390000000     0.744050000000    -0.0892296  
C624     C      0.591300000000     0.978850000000     0.744420000000    -0.00246101 
C625     C      0.639750000000     0.228740000000     0.514200000000    -0.000757123
C626     C      0.619460000000     0.212570000000     0.495010000000    -0.0899295  
C627     C      0.599240000000     0.228980000000     0.975960000000     0.000126223
C628     C      0.599730000000     0.261130000000     0.975660000000    -0.00146212 
C629     C      0.619680000000     0.277310000000     0.495200000000    -0.0896327  
C630     C      0.639480000000     0.260910000000     0.514690000000    -0.00139133 
C631     C      0.647180000000     0.120440000000     0.885530000000    -0.00274876 
C632     C      0.619360000000     0.120490000000     0.901980000000    -0.0893095  
C633     C      0.591490000000     0.120540000000     0.885580000000    -0.00270623 
C634     C      0.591440000000     0.120530000000     0.853490000000    -0.00274816 
C635     C      0.619270000000     0.120440000000     0.837040000000    -0.0892851  
C636     C      0.647140000000     0.120410000000     0.853440000000    -0.00283544 
C637     C      0.591440000000     0.120050000000     0.603500000000    -0.00256316 
C638     C      0.619260000000     0.119980000000     0.587050000000    -0.0894155  
C639     C      0.647130000000     0.119940000000     0.603440000000    -0.00258673 
C640     C      0.647190000000     0.119970000000     0.635530000000    -0.00265158 
C641     C      0.619370000000     0.120040000000     0.651980000000    -0.0893882  
C642     C      0.591490000000     0.120070000000     0.635580000000    -0.00264837 
C643     C      0.591360000000     0.011000000000     0.494370000000    -0.00241573 
C644     C      0.619210000000     0.027470000000     0.494290000000    -0.0893429  
C645     C      0.647050000000     0.011000000000     0.994200000000    -0.00271387 
C646     C      0.647050000000     0.978850000000     0.994200000000    -0.00286419 
C647     C      0.619210000000     0.962390000000     0.494280000000    -0.0891126  
C648     C      0.591360000000     0.978840000000     0.494360000000    -0.00254291 
C649     C      0.228960000000     0.599790000000     0.724930000000    -0.000938943
C650     C      0.212500000000     0.619850000000     0.744100000000    -0.0897618  
C651     C      0.228620000000     0.639980000000     0.763520000000    -0.000872736
C652     C      0.260780000000     0.639690000000     0.764110000000    -0.00125693 
C653     C      0.277240000000     0.620050000000     0.744500000000    -0.0897542  
C654     C      0.261120000000     0.600280000000     0.724740000000    -0.000898901
C655     C      0.228610000000     0.639930000000     0.973270000000     0.000134996
C656     C      0.212500000000     0.619770000000     0.492660000000    -0.0898124  
C657     C      0.228970000000     0.599640000000     0.511740000000    -0.00085235 
C658     C      0.261120000000     0.600110000000     0.511910000000    -0.000938226
C659     C      0.277240000000     0.619920000000     0.492190000000    -0.0897062  
C660     C      0.260780000000     0.639620000000     0.972640000000    -0.00175456 
C661     C      0.120200000000     0.591120000000     0.884520000000    -0.00256014 
C662     C      0.119710000000     0.618970000000     0.900940000000    -0.0892588  
C663     C      0.119230000000     0.646810000000     0.884500000000    -0.00289323 
C664     C      0.119260000000     0.646810000000     0.852450000000    -0.00273448 
C665     C      0.119770000000     0.618980000000     0.836010000000    -0.0893776  
C666     C      0.120220000000     0.591120000000     0.852420000000    -0.00251152 
C667     C      0.120260000000     0.592520000000     0.602440000000    -0.0029164  
C668     C      0.120600000000     0.620350000000     0.586000000000    -0.0891408  
C669     C      0.120950000000     0.648210000000     0.602410000000    -0.00277468 
C670     C      0.120920000000     0.648210000000     0.634530000000    -0.00255351 
C671     C      0.120540000000     0.620360000000     0.650950000000    -0.0893642  
C672     C      0.120230000000     0.592530000000     0.634500000000    -0.00275162 
C673     C      0.728810000000     0.639610000000     0.724080000000    -0.00124403 
C674     C      0.712470000000     0.620010000000     0.743820000000    -0.0897733  
C675     C      0.728700000000     0.600270000000     0.763530000000    -0.000976731
C676     C      0.760860000000     0.599780000000     0.763140000000    -0.000869527
C677     C      0.777210000000     0.619800000000     0.743830000000    -0.0897839  
C678     C      0.760980000000     0.639900000000     0.724480000000    -0.000879375
C679     C      0.978780000000     0.591690000000     0.743690000000    -0.00253636 
C680     C      0.962310000000     0.619540000000     0.743810000000    -0.08916    
C681     C      0.978780000000     0.647390000000     0.743690000000    -0.00257107 
C682     C      0.010930000000     0.647390000000     0.743470000000    -0.00242605 
C683     C      0.027400000000     0.619550000000     0.743380000000    -0.0892874  
C684     C      0.010940000000     0.591700000000     0.743480000000    -0.00240554 
C685     C      0.760850000000     0.599690000000     0.975070000000     0.000116151
C686     C      0.777210000000     0.619750000000     0.494320000000    -0.0898086  
C687     C      0.760980000000     0.639870000000     0.513650000000    -0.000877463
C688     C      0.728810000000     0.639570000000     0.514060000000    -0.00122996 
C689     C      0.712470000000     0.619940000000     0.494360000000    -0.0897518  
C690     C      0.728700000000     0.600170000000     0.974690000000    -0.00138294 
C691     C      0.869040000000     0.648190000000     0.885060000000    -0.00271544 
C692     C      0.869410000000     0.620330000000     0.901470000000    -0.0891911  
C693     C      0.869790000000     0.592500000000     0.885030000000    -0.00284067 
C694     C      0.869820000000     0.592500000000     0.852970000000    -0.00278254 
C695     C      0.869470000000     0.620330000000     0.836530000000    -0.0892764  
C696     C      0.869070000000     0.648190000000     0.852940000000    -0.00266704 
C697     C      0.869230000000     0.591090000000     0.602940000000    -0.00250867 
C698     C      0.869700000000     0.618950000000     0.586530000000    -0.089484   
C699     C      0.870140000000     0.646780000000     0.602970000000    -0.00271532 
C700     C      0.870120000000     0.646780000000     0.635030000000    -0.00279763 
C701     C      0.869650000000     0.618950000000     0.651460000000    -0.0893377  
C702     C      0.869200000000     0.591090000000     0.635050000000    -0.0025839  
C703     C      0.978780000000     0.647410000000     0.493890000000    -0.002457   
C704     C      0.962310000000     0.619570000000     0.493890000000    -0.0892195  
C705     C      0.978780000000     0.591720000000     0.993890000000    -0.00281155 
C706     C      0.010940000000     0.591730000000     0.993880000000    -0.00275039 
C707     C      0.027400000000     0.619580000000     0.493880000000    -0.0892481  
C708     C      0.010930000000     0.647420000000     0.493890000000    -0.0024876  
C709     C      0.349930000000     0.228950000000     0.765940000000    -0.000840463
C710     C      0.370220000000     0.212660000000     0.746840000000    -0.0897819  
C711     C      0.390400000000     0.228960000000     0.727650000000    -0.000824497
C712     C      0.389870000000     0.261110000000     0.727110000000    -0.0010847  
C713     C      0.369930000000     0.277400000000     0.746560000000    -0.0895388  
C714     C      0.350170000000     0.261120000000     0.766200000000    -0.00140364 
C715     C      0.349900000000     0.229100000000     0.515600000000    -0.000908375
C716     C      0.370250000000     0.212690000000     0.496660000000    -0.0898154  
C717     C      0.390490000000     0.228870000000     0.977430000000     6.2544e-05 
C718     C      0.389940000000     0.261010000000     0.976670000000    -0.00134916 
C719     C      0.369930000000     0.277430000000     0.495930000000    -0.0897355  
C720     C      0.350130000000     0.261270000000     0.515630000000    -0.00128903 
C721     C      0.398240000000     0.120320000000     0.855680000000    -0.0025965  
C722     C      0.370420000000     0.120240000000     0.839220000000    -0.0893564  
C723     C      0.342550000000     0.120250000000     0.855620000000    -0.00265961 
C724     C      0.342490000000     0.120350000000     0.887710000000    -0.00280899 
C725     C      0.370310000000     0.120410000000     0.904160000000    -0.0892296  
C726     C      0.398190000000     0.120400000000     0.887760000000    -0.00278027 
C727     C      0.342540000000     0.120270000000     0.605630000000    -0.0027336  
C728     C      0.370410000000     0.120270000000     0.589230000000    -0.0892842  
C729     C      0.398230000000     0.120350000000     0.605680000000    -0.002654   
C730     C      0.398180000000     0.120410000000     0.637760000000    -0.00265552 
C731     C      0.370310000000     0.120420000000     0.654160000000    -0.0893592  
C732     C      0.342490000000     0.120360000000     0.637710000000    -0.0026574  
C733     C      0.390190000000     0.760950000000     0.763370000000    -0.000855167
C734     C      0.370170000000     0.777370000000     0.744120000000    -0.08988    
C735     C      0.350070000000     0.761210000000     0.724710000000    -0.00083478 
C736     C      0.350360000000     0.729040000000     0.724210000000    -0.00130503 
C737     C      0.369950000000     0.712630000000     0.743910000000    -0.0896993  
C738     C      0.389690000000     0.728800000000     0.763660000000    -0.000946291
C739     C      0.342590000000     0.978950000000     0.745520000000    -0.00247959 
C740     C      0.370430000000     0.962480000000     0.745390000000    -0.0891479  
C741     C      0.398280000000     0.978930000000     0.745680000000    -0.00244577 
C742     C      0.398290000000     0.011090000000     0.746070000000    -0.00255889 
C743     C      0.370440000000     0.027550000000     0.746180000000    -0.0890493  
C744     C      0.342590000000     0.011100000000     0.745900000000    -0.00258586 
C745     C      0.349940000000     0.760980000000     0.513410000000    -0.000837915
C746     C      0.370080000000     0.777380000000     0.494260000000    -0.0897827  
C747     C      0.390070000000     0.761200000000     0.974770000000     7.89474e-06
C748     C      0.389510000000     0.729050000000     0.974020000000    -0.00136145 
C749     C      0.369750000000     0.712640000000     0.493560000000    -0.0898073  
C750     C      0.350160000000     0.728820000000     0.513460000000    -0.00124775 
C751     C      0.397450000000     0.870060000000     0.885730000000    -0.00278559 
C752     C      0.369610000000     0.869760000000     0.902170000000    -0.0893668  
C753     C      0.341760000000     0.869320000000     0.885750000000    -0.0025787  
C754     C      0.341760000000     0.869190000000     0.853640000000    -0.0027501  
C755     C      0.369620000000     0.869500000000     0.837230000000    -0.0891617  
C756     C      0.397450000000     0.869930000000     0.853670000000    -0.00285646 
C757     C      0.398860000000     0.869410000000     0.635750000000    -0.00260457 
C758     C      0.371000000000     0.869930000000     0.652170000000    -0.089361   
C759     C      0.343170000000     0.870340000000     0.635730000000    -0.00274005 
C760     C      0.343160000000     0.870220000000     0.603670000000    -0.00279217 
C761     C      0.370990000000     0.869690000000     0.587230000000    -0.0893783  
C762     C      0.398850000000     0.869280000000     0.603640000000    -0.0025363  
C763     C      0.342580000000     0.978970000000     0.495230000000    -0.00241818 
C764     C      0.370420000000     0.962490000000     0.495280000000    -0.0892623  
C765     C      0.398270000000     0.978950000000     0.995770000000    -0.00271291 
C766     C      0.398280000000     0.011100000000     0.996190000000    -0.0029057  
C767     C      0.370430000000     0.027570000000     0.496140000000    -0.0890031  
C768     C      0.342580000000     0.011120000000     0.495660000000    -0.00262486 
H1       H      0.870260000000     0.321280000000     0.394180000000     0.044547   
H2       H      0.868490000000     0.420720000000     0.394260000000     0.0446597  
H3       H      0.868530000000     0.420710000000     0.338300000000     0.0446549  
H4       H      0.870300000000     0.321270000000     0.338400000000     0.0444919  
H5       H      0.870250000000     0.419350000000     0.088400000000     0.0452537  
H6       H      0.869050000000     0.319900000000     0.088300000000     0.045552   
H7       H      0.869000000000     0.319890000000     0.144250000000     0.0450904  
H8       H      0.870200000000     0.419340000000     0.144190000000     0.04476    
H9       H      0.966880000000     0.320890000000     0.241430000000     0.0448491  
H10      H      0.966770000000     0.420340000000     0.241150000000     0.0446336  
H11      H      0.022800000000     0.420390000000     0.241190000000     0.0446346  
H12      H      0.022860000000     0.320930000000     0.241470000000     0.044787   
H13      H      0.120000000000     0.420290000000     0.394630000000     0.04477    
H14      H      0.119880000000     0.320830000000     0.394710000000     0.044596   
H15      H      0.119770000000     0.320760000000     0.338840000000     0.0447591  
H16      H      0.119880000000     0.420220000000     0.338760000000     0.044698   
H17      H      0.120300000000     0.320760000000     0.088850000000     0.0453909  
H18      H      0.120400000000     0.420220000000     0.088740000000     0.0450484  
H19      H      0.120530000000     0.420300000000     0.144610000000     0.044709   
H20      H      0.120410000000     0.320850000000     0.144730000000     0.0448426  
H21      H      0.022790000000     0.420260000000     0.991110000000     0.0441381  
H22      H      0.022860000000     0.320800000000     0.492070000000     0.0446596  
H23      H      0.966870000000     0.320750000000     0.491800000000     0.0446607  
H24      H      0.966780000000     0.420210000000     0.990850000000     0.0441303  
H25      H      0.716020000000     0.404210000000     0.206640000000     0.0412491  
H26      H      0.717110000000     0.334850000000     0.277540000000     0.0402361  
H27      H      0.773550000000     0.334550000000     0.276400000000     0.0410983  
H28      H      0.772520000000     0.404990000000     0.206570000000     0.0414275  
H29      H      0.620170000000     0.466990000000     0.293850000000     0.0447595  
H30      H      0.620320000000     0.466870000000     0.194610000000     0.0447196  
H31      H      0.620310000000     0.522870000000     0.194510000000     0.0448722  
H32      H      0.620140000000     0.522990000000     0.293750000000     0.0446503  
H33      H      0.717010000000     0.404920000000     0.028020000000     0.0416727  
H34      H      0.716140000000     0.334640000000     0.458030000000     0.0414598  
H35      H      0.772620000000     0.334400000000     0.457580000000     0.0411806  
H36      H      0.773440000000     0.405730000000     0.026510000000     0.0415079  
H37      H      0.620070000000     0.466790000000     0.444610000000     0.0447798  
H38      H      0.620400000000     0.467070000000     0.043850000000     0.0443571  
H39      H      0.620380000000     0.523060000000     0.043720000000     0.0445112  
H40      H      0.620040000000     0.522790000000     0.444480000000     0.0446132  
H41      H      0.466910000000     0.620180000000     0.194750000000     0.0448746  
H42      H      0.466800000000     0.620300000000     0.294000000000     0.0446412  
H43      H      0.522810000000     0.620280000000     0.294080000000     0.0447553  
H44      H      0.522900000000     0.620140000000     0.194840000000     0.044755   
H45      H      0.466690000000     0.620250000000     0.042530000000     0.0444985  
H46      H      0.467030000000     0.620410000000     0.443290000000     0.0446264  
H47      H      0.523030000000     0.620350000000     0.443460000000     0.0447855  
H48      H      0.522670000000     0.620170000000     0.042700000000     0.044336   
H49      H      0.272570000000     0.405200000000     0.278860000000     0.0416627  
H50      H      0.273580000000     0.334550000000     0.209250000000     0.0417627  
H51      H      0.217110000000     0.334390000000     0.208600000000     0.0414134  
H52      H      0.216140000000     0.406090000000     0.277140000000     0.0415683  
H53      H      0.467120000000     0.369200000000     0.296040000000     0.0445979  
H54      H      0.466570000000     0.370420000000     0.196800000000     0.0449265  
H55      H      0.522400000000     0.370370000000     0.196390000000     0.0448889  
H56      H      0.523270000000     0.369160000000     0.295620000000     0.0446602  
H57      H      0.369720000000     0.466840000000     0.195380000000     0.0446665  
H58      H      0.369170000000     0.467200000000     0.294620000000     0.0448416  
H59      H      0.369190000000     0.523180000000     0.294450000000     0.0449298  
H60      H      0.369750000000     0.522840000000     0.195210000000     0.0445947  
H61      H      0.272890000000     0.405690000000     0.026990000000     0.0416036  
H62      H      0.273280000000     0.334570000000     0.457840000000     0.0416583  
H63      H      0.216800000000     0.334320000000     0.457800000000     0.0413696  
H64      H      0.216460000000     0.406480000000     0.025880000000     0.0413957  
H65      H      0.466610000000     0.368930000000     0.045120000000     0.0443965  
H66      H      0.467060000000     0.370610000000     0.445890000000     0.044789   
H67      H      0.522900000000     0.370610000000     0.446070000000     0.044802   
H68      H      0.522750000000     0.368920000000     0.045300000000     0.0443612  
H69      H      0.368660000000     0.466620000000     0.442770000000     0.0448131  
H70      H      0.370510000000     0.467430000000     0.041990000000     0.0443398  
H71      H      0.370540000000     0.523290000000     0.041610000000     0.0442898  
H72      H      0.368680000000     0.522750000000     0.442380000000     0.0447907  
H73      H      0.584660000000     0.716480000000     0.209520000000     0.0415744  
H74      H      0.654910000000     0.716900000000     0.279540000000     0.0416003  
H75      H      0.655210000000     0.773370000000     0.278880000000     0.0413148  
H76      H      0.583900000000     0.772920000000     0.209920000000     0.041507   
H77      H      0.583780000000     0.772880000000     0.027810000000     0.0414513  
H78      H      0.655260000000     0.773400000000     0.459030000000     0.0412624  
H79      H      0.654960000000     0.716920000000     0.458300000000     0.0415822  
H80      H      0.584530000000     0.716440000000     0.028150000000     0.041662   
H81      H      0.668360000000     0.870780000000     0.396900000000     0.0445344  
H82      H      0.568910000000     0.869040000000     0.396990000000     0.0446221  
H83      H      0.568910000000     0.869000000000     0.341040000000     0.0446926  
H84      H      0.668360000000     0.870740000000     0.341110000000     0.0445927  
H85      H      0.669730000000     0.868720000000     0.091040000000     0.0454656  
H86      H      0.570280000000     0.869950000000     0.091110000000     0.0452243  
H87      H      0.570270000000     0.870000000000     0.146900000000     0.0447597  
H88      H      0.669720000000     0.868770000000     0.147000000000     0.0449747  
H89      H      0.584020000000     0.216740000000     0.209650000000     0.0414763  
H90      H      0.655330000000     0.216680000000     0.278610000000     0.0411269  
H91      H      0.655080000000     0.273140000000     0.278920000000     0.0402988  
H92      H      0.584840000000     0.273220000000     0.208880000000     0.0414418  
H93      H      0.569420000000     0.022940000000     0.244890000000     0.0446362  
H94      H      0.668880000000     0.022930000000     0.243930000000     0.0447946  
H95      H      0.668880000000     0.966950000000     0.243610000000     0.0447907  
H96      H      0.569420000000     0.966920000000     0.244570000000     0.0446503  
H97      H      0.655450000000     0.216490000000     0.029170000000     0.0415135  
H98      H      0.583470000000     0.216930000000     0.460900000000     0.0413624  
H99      H      0.584200000000     0.273370000000     0.460510000000     0.0415015  
H100     H      0.655130000000     0.272970000000     0.029850000000     0.0420113  
H101     H      0.669080000000     0.120400000000     0.397410000000     0.0445985  
H102     H      0.569620000000     0.120590000000     0.397500000000     0.0444915  
H103     H      0.569550000000     0.120560000000     0.341620000000     0.0447171  
H104     H      0.669010000000     0.120350000000     0.341530000000     0.0445571  
H105     H      0.569540000000     0.120090000000     0.091630000000     0.0453904  
H106     H      0.669000000000     0.119890000000     0.091520000000     0.0453399  
H107     H      0.669080000000     0.119940000000     0.147390000000     0.0450184  
H108     H      0.569620000000     0.120130000000     0.147500000000     0.0447252  
H109     H      0.569480000000     0.022930000000     0.994450000000     0.04411    
H110     H      0.668940000000     0.022920000000     0.494140000000     0.0446378  
H111     H      0.668940000000     0.966940000000     0.494120000000     0.0446838  
H112     H      0.569480000000     0.966920000000     0.994420000000     0.0441299  
H113     H      0.216950000000     0.584160000000     0.209710000000     0.041429   
H114     H      0.216320000000     0.655550000000     0.278580000000     0.0413489  
H115     H      0.272800000000     0.655200000000     0.279450000000     0.0416024  
H116     H      0.273400000000     0.584870000000     0.209500000000     0.0414599  
H117     H      0.216310000000     0.655560000000     0.458270000000     0.041323   
H118     H      0.216970000000     0.583980000000     0.026950000000     0.0412618  
H119     H      0.273410000000     0.584650000000     0.027090000000     0.0414547  
H120     H      0.272790000000     0.655180000000     0.457350000000     0.0415951  
H121     H      0.120580000000     0.569260000000     0.396440000000     0.0448321  
H122     H      0.118850000000     0.668700000000     0.396370000000     0.0446072  
H123     H      0.118900000000     0.668710000000     0.340580000000     0.0445601  
H124     H      0.120620000000     0.569260000000     0.340490000000     0.0447745  
H125     H      0.119990000000     0.570620000000     0.090580000000     0.0450979  
H126     H      0.121220000000     0.670070000000     0.090490000000     0.0454715  
H127     H      0.121170000000     0.670080000000     0.146450000000     0.0449244  
H128     H      0.119950000000     0.570630000000     0.146370000000     0.044609   
H129     H      0.716710000000     0.655090000000     0.208780000000     0.0416807  
H130     H      0.716510000000     0.584890000000     0.278860000000     0.0414841  
H131     H      0.772960000000     0.584180000000     0.278330000000     0.0414154  
H132     H      0.773180000000     0.655440000000     0.209320000000     0.0414247  
H133     H      0.966860000000     0.569810000000     0.243760000000     0.0446749  
H134     H      0.966860000000     0.669270000000     0.243760000000     0.044805   
H135     H      0.022840000000     0.669280000000     0.243410000000     0.0447636  
H136     H      0.022870000000     0.569820000000     0.243420000000     0.0446422  
H137     H      0.772950000000     0.584060000000     0.459900000000     0.0414228  
H138     H      0.773180000000     0.655450000000     0.028780000000     0.0413407  
H139     H      0.716700000000     0.655090000000     0.029330000000     0.0417482  
H140     H      0.716510000000     0.584750000000     0.459390000000     0.0414802  
H141     H      0.868740000000     0.670050000000     0.396980000000     0.0447605  
H142     H      0.870070000000     0.570600000000     0.396890000000     0.0445698  
H143     H      0.870120000000     0.570600000000     0.341110000000     0.0445946  
H144     H      0.868790000000     0.670050000000     0.341020000000     0.0447785  
H145     H      0.868880000000     0.569230000000     0.091020000000     0.0453545  
H146     H      0.870500000000     0.668680000000     0.091110000000     0.045234   
H147     H      0.870460000000     0.668680000000     0.146890000000     0.0447614  
H148     H      0.868830000000     0.569230000000     0.146980000000     0.0448257  
H149     H      0.966860000000     0.669300000000     0.993900000000     0.0441137  
H150     H      0.966860000000     0.569840000000     0.493890000000     0.0446052  
H151     H      0.022860000000     0.569850000000     0.493870000000     0.0445887  
H152     H      0.022840000000     0.669310000000     0.993880000000     0.0441181  
H153     H      0.334260000000     0.216790000000     0.281010000000     0.0413642  
H154     H      0.406150000000     0.216810000000     0.212650000000     0.0415363  
H155     H      0.405370000000     0.273260000000     0.211870000000     0.0416272  
H156     H      0.334530000000     0.273270000000     0.281300000000     0.0416293  
H157     H      0.334180000000     0.217030000000     0.030690000000     0.0413722  
H158     H      0.406280000000     0.216630000000     0.462550000000     0.0414743  
H159     H      0.405480000000     0.273060000000     0.461380000000     0.0415574  
H160     H      0.334420000000     0.273520000000     0.030590000000     0.0417722  
H161     H      0.420140000000     0.120320000000     0.343810000000     0.0447056  
H162     H      0.320670000000     0.120200000000     0.343710000000     0.0446136  
H163     H      0.320600000000     0.120340000000     0.399580000000     0.0447127  
H164     H      0.420060000000     0.120450000000     0.399680000000     0.0445173  
H165     H      0.320670000000     0.120230000000     0.093710000000     0.0452743  
H166     H      0.420130000000     0.120350000000     0.093810000000     0.0453937  
H167     H      0.420050000000     0.120460000000     0.149680000000     0.0446854  
H168     H      0.320590000000     0.120350000000     0.149580000000     0.0448883  
H169     H      0.405800000000     0.773000000000     0.278590000000     0.0414124  
H170     H      0.334530000000     0.773460000000     0.209590000000     0.0413845  
H171     H      0.334860000000     0.716980000000     0.208890000000     0.0416416  
H172     H      0.405070000000     0.716560000000     0.278950000000     0.0415096  
H173     H      0.320700000000     0.967040000000     0.245310000000     0.044775   
H174     H      0.420160000000     0.967000000000     0.245600000000     0.0446512  
H175     H      0.420170000000     0.023010000000     0.246270000000     0.0446748  
H176     H      0.320710000000     0.023020000000     0.245970000000     0.0448088  
H177     H      0.334410000000     0.773050000000     0.028700000000     0.0413295  
H178     H      0.405690000000     0.773440000000     0.459720000000     0.0414231  
H179     H      0.404890000000     0.716990000000     0.458580000000     0.0414586  
H180     H      0.334660000000     0.716570000000     0.028630000000     0.0418228  
H181     H      0.419340000000     0.870380000000     0.397600000000     0.0445656  
H182     H      0.319890000000     0.869080000000     0.397670000000     0.0447252  
H183     H      0.319900000000     0.868870000000     0.341710000000     0.0448076  
H184     H      0.419350000000     0.870180000000     0.341810000000     0.0446063  
H185     H      0.420720000000     0.869070000000     0.147670000000     0.0448456  
H186     H      0.321270000000     0.870740000000     0.147600000000     0.0447569  
H187     H      0.321260000000     0.870550000000     0.091810000000     0.0452465  
H188     H      0.420710000000     0.868880000000     0.091710000000     0.0453313  
H189     H      0.320690000000     0.967060000000     0.994870000000     0.0441089  
H190     H      0.420150000000     0.967020000000     0.495830000000     0.0445574  
H191     H      0.420160000000     0.023020000000     0.496550000000     0.0446214  
H192     H      0.320700000000     0.023040000000     0.995590000000     0.0441553  
H193     H      0.870260000000     0.321280000000     0.894180000000     0.044408   
H194     H      0.868490000000     0.420720000000     0.894260000000     0.0445926  
H195     H      0.868530000000     0.420710000000     0.838300000000     0.0446375  
H196     H      0.870300000000     0.321270000000     0.838400000000     0.0443955  
H197     H      0.870250000000     0.419350000000     0.588400000000     0.0445968  
H198     H      0.869050000000     0.319900000000     0.588300000000     0.0448367  
H199     H      0.869000000000     0.319890000000     0.644250000000     0.0448691  
H200     H      0.870200000000     0.419340000000     0.644180000000     0.0446141  
H201     H      0.966880000000     0.320890000000     0.741430000000     0.0447087  
H202     H      0.966770000000     0.420340000000     0.741150000000     0.0445751  
H203     H      0.022800000000     0.420390000000     0.741190000000     0.0445761  
H204     H      0.022860000000     0.320930000000     0.741480000000     0.0446466  
H205     H      0.120000000000     0.420290000000     0.894630000000     0.0446884  
H206     H      0.119880000000     0.320830000000     0.894710000000     0.0444493  
H207     H      0.119770000000     0.320760000000     0.838840000000     0.0446637  
H208     H      0.119880000000     0.420220000000     0.838760000000     0.0446752  
H209     H      0.120300000000     0.320760000000     0.588860000000     0.0446738  
H210     H      0.120400000000     0.420220000000     0.588740000000     0.044411   
H211     H      0.120530000000     0.420300000000     0.644620000000     0.0445821  
H212     H      0.120410000000     0.320850000000     0.644730000000     0.04463    
H213     H      0.022790000000     0.420260000000     0.491120000000     0.0445974  
H214     H      0.022860000000     0.320800000000     0.992070000000     0.0441217  
H215     H      0.966870000000     0.320750000000     0.991800000000     0.0441242  
H216     H      0.966780000000     0.420210000000     0.490850000000     0.0445827  
H217     H      0.716020000000     0.404210000000     0.706640000000     0.0411853  
H218     H      0.717110000000     0.334850000000     0.777530000000     0.0402199  
H219     H      0.773550000000     0.334550000000     0.776400000000     0.0410379  
H220     H      0.772520000000     0.404990000000     0.706570000000     0.0413471  
H221     H      0.620170000000     0.466990000000     0.793850000000     0.044767   
H222     H      0.620320000000     0.466870000000     0.694610000000     0.0446531  
H223     H      0.620310000000     0.522870000000     0.694510000000     0.0447985  
H224     H      0.620140000000     0.522990000000     0.793760000000     0.0446307  
H225     H      0.717010000000     0.404920000000     0.528020000000     0.0415176  
H226     H      0.716140000000     0.334640000000     0.958030000000     0.0412718  
H227     H      0.772620000000     0.334400000000     0.957580000000     0.0406211  
H228     H      0.773440000000     0.405730000000     0.526510000000     0.0414781  
H229     H      0.620070000000     0.466790000000     0.944610000000     0.0446     
H230     H      0.620400000000     0.467070000000     0.543850000000     0.0446907  
H231     H      0.620380000000     0.523060000000     0.543730000000     0.0447919  
H232     H      0.620040000000     0.522790000000     0.944480000000     0.0444916  
H233     H      0.466910000000     0.620180000000     0.694750000000     0.0448083  
H234     H      0.466800000000     0.620300000000     0.794000000000     0.044645   
H235     H      0.522810000000     0.620280000000     0.794080000000     0.0447536  
H236     H      0.522900000000     0.620140000000     0.694830000000     0.0446667  
H237     H      0.466690000000     0.620250000000     0.542530000000     0.0447928  
H238     H      0.467030000000     0.620410000000     0.943280000000     0.0444754  
H239     H      0.523030000000     0.620350000000     0.943460000000     0.0446415  
H240     H      0.522670000000     0.620170000000     0.542700000000     0.0446639  
H241     H      0.272570000000     0.405200000000     0.778860000000     0.041652   
H242     H      0.273580000000     0.334550000000     0.709250000000     0.0416672  
H243     H      0.217110000000     0.334390000000     0.708600000000     0.0412917  
H244     H      0.216140000000     0.406090000000     0.777140000000     0.0415512  
H245     H      0.467120000000     0.369200000000     0.796030000000     0.0446245  
H246     H      0.466570000000     0.370420000000     0.696800000000     0.0448561  
H247     H      0.522400000000     0.370370000000     0.696390000000     0.0448008  
H248     H      0.523270000000     0.369160000000     0.795620000000     0.0446696  
H249     H      0.369720000000     0.466840000000     0.695380000000     0.0446134  
H250     H      0.369170000000     0.467200000000     0.794620000000     0.0448304  
H251     H      0.369190000000     0.523180000000     0.794450000000     0.0449289  
H252     H      0.369750000000     0.522840000000     0.695210000000     0.0445307  
H253     H      0.272890000000     0.405690000000     0.526990000000     0.0415016  
H254     H      0.273280000000     0.334570000000     0.957840000000     0.0414411  
H255     H      0.216800000000     0.334320000000     0.957800000000     0.0408352  
H256     H      0.216460000000     0.406480000000     0.525880000000     0.0413852  
H257     H      0.466610000000     0.368930000000     0.545120000000     0.0446652  
H258     H      0.467060000000     0.370610000000     0.945890000000     0.0446631  
H259     H      0.522900000000     0.370610000000     0.946060000000     0.0446609  
H260     H      0.522750000000     0.368920000000     0.545300000000     0.0446425  
H261     H      0.368660000000     0.466620000000     0.942770000000     0.0446568  
H262     H      0.370510000000     0.467430000000     0.541990000000     0.0446834  
H263     H      0.370540000000     0.523290000000     0.541610000000     0.0446181  
H264     H      0.368680000000     0.522750000000     0.942380000000     0.0446285  
H265     H      0.584660000000     0.716480000000     0.709520000000     0.0415117  
H266     H      0.654910000000     0.716900000000     0.779540000000     0.0415721  
H267     H      0.655210000000     0.773370000000     0.778880000000     0.0412734  
H268     H      0.583900000000     0.772920000000     0.709920000000     0.0414301  
H269     H      0.583780000000     0.772880000000     0.527810000000     0.041416   
H270     H      0.655260000000     0.773400000000     0.959030000000     0.0407312  
H271     H      0.654960000000     0.716920000000     0.958310000000     0.0413758  
H272     H      0.584530000000     0.716440000000     0.528150000000     0.0415343  
H273     H      0.668360000000     0.870780000000     0.896900000000     0.0443923  
H274     H      0.568910000000     0.869040000000     0.897000000000     0.0445515  
H275     H      0.568910000000     0.869000000000     0.841040000000     0.0446787  
H276     H      0.668360000000     0.870740000000     0.841110000000     0.0444995  
H277     H      0.669730000000     0.868720000000     0.591040000000     0.0447501  
H278     H      0.570280000000     0.869950000000     0.591110000000     0.044567   
H279     H      0.570270000000     0.870000000000     0.646900000000     0.0446255  
H280     H      0.669720000000     0.868770000000     0.647000000000     0.0447643  
H281     H      0.584020000000     0.216740000000     0.709650000000     0.0413852  
H282     H      0.655330000000     0.216680000000     0.778610000000     0.0410727  
H283     H      0.655080000000     0.273140000000     0.778910000000     0.0402827  
H284     H      0.584840000000     0.273220000000     0.708880000000     0.0413625  
H285     H      0.569420000000     0.022940000000     0.744890000000     0.0445797  
H286     H      0.668880000000     0.022930000000     0.743930000000     0.0446546  
H287     H      0.668880000000     0.966950000000     0.743610000000     0.0446499  
H288     H      0.569420000000     0.966920000000     0.744570000000     0.044593   
H289     H      0.655450000000     0.216490000000     0.529160000000     0.0414734  
H290     H      0.583470000000     0.216930000000     0.960900000000     0.0408864  
H291     H      0.584200000000     0.273370000000     0.960510000000     0.0413668  
H292     H      0.655130000000     0.272970000000     0.529850000000     0.0418122  
H293     H      0.669080000000     0.120400000000     0.897400000000     0.0444516  
H294     H      0.569620000000     0.120590000000     0.897490000000     0.0444624  
H295     H      0.569550000000     0.120560000000     0.841620000000     0.0446985  
H296     H      0.669010000000     0.120350000000     0.841530000000     0.0444445  
H297     H      0.569540000000     0.120090000000     0.591630000000     0.044699   
H298     H      0.669000000000     0.119890000000     0.591530000000     0.0446578  
H299     H      0.669080000000     0.119940000000     0.647390000000     0.0448067  
H300     H      0.569620000000     0.120130000000     0.647500000000     0.0445667  
H301     H      0.569480000000     0.022930000000     0.494450000000     0.0445645  
H302     H      0.668940000000     0.022920000000     0.994140000000     0.0440982  
H303     H      0.668940000000     0.966940000000     0.994120000000     0.0441476  
H304     H      0.569480000000     0.966920000000     0.494420000000     0.044592   
H305     H      0.216950000000     0.584160000000     0.709710000000     0.041361   
H306     H      0.216320000000     0.655550000000     0.778580000000     0.0412988  
H307     H      0.272800000000     0.655200000000     0.779450000000     0.0415723  
H308     H      0.273400000000     0.584870000000     0.709500000000     0.0414045  
H309     H      0.216310000000     0.655560000000     0.958270000000     0.040787   
H310     H      0.216970000000     0.583980000000     0.526950000000     0.0412597  
H311     H      0.273410000000     0.584650000000     0.527090000000     0.0413499  
H312     H      0.272790000000     0.655180000000     0.957350000000     0.0413808  
H313     H      0.120580000000     0.569260000000     0.896450000000     0.0447368  
H314     H      0.118850000000     0.668700000000     0.896360000000     0.0444556  
H315     H      0.118900000000     0.668710000000     0.840580000000     0.0444727  
H316     H      0.120620000000     0.569260000000     0.840490000000     0.044763   
H317     H      0.119990000000     0.570620000000     0.590580000000     0.0444716  
H318     H      0.121220000000     0.670070000000     0.590490000000     0.0447646  
H319     H      0.121170000000     0.670080000000     0.646450000000     0.0447031  
H320     H      0.119950000000     0.570630000000     0.646370000000     0.0444742  
H321     H      0.716710000000     0.655090000000     0.708780000000     0.041584   
H322     H      0.716510000000     0.584890000000     0.778860000000     0.0414799  
H323     H      0.772960000000     0.584180000000     0.778330000000     0.0414049  
H324     H      0.773180000000     0.655440000000     0.709320000000     0.0413059  
H325     H      0.966860000000     0.569810000000     0.743760000000     0.044619   
H326     H      0.966860000000     0.669270000000     0.743760000000     0.0446654  
H327     H      0.022840000000     0.669280000000     0.743410000000     0.0446231  
H328     H      0.022870000000     0.569820000000     0.743420000000     0.0445856  
H329     H      0.772950000000     0.584060000000     0.959900000000     0.0408951  
H330     H      0.773180000000     0.655450000000     0.528780000000     0.0412946  
H331     H      0.716700000000     0.655090000000     0.529330000000     0.0415592  
H332     H      0.716510000000     0.584750000000     0.959390000000     0.0413201  
H333     H      0.868740000000     0.670050000000     0.896980000000     0.0445982  
H334     H      0.870070000000     0.570600000000     0.896890000000     0.0445125  
H335     H      0.870120000000     0.570600000000     0.841100000000     0.0445797  
H336     H      0.868790000000     0.670050000000     0.841020000000     0.0446759  
H337     H      0.868880000000     0.569230000000     0.591020000000     0.0446831  
H338     H      0.870500000000     0.668680000000     0.591110000000     0.0445448  
H339     H      0.870460000000     0.668680000000     0.646890000000     0.0445615  
H340     H      0.868830000000     0.569230000000     0.646980000000     0.0446915  
H341     H      0.966860000000     0.669300000000     0.493900000000     0.044654   
H342     H      0.966860000000     0.569840000000     0.993890000000     0.0441368  
H343     H      0.022860000000     0.569850000000     0.993870000000     0.044115   
H344     H      0.022840000000     0.669310000000     0.493880000000     0.0446561  
H345     H      0.334260000000     0.216790000000     0.781010000000     0.0413121  
H346     H      0.406150000000     0.216810000000     0.712650000000     0.0414364  
H347     H      0.405370000000     0.273260000000     0.711870000000     0.0415711  
H348     H      0.334530000000     0.273270000000     0.781300000000     0.0416185  
H349     H      0.334180000000     0.217030000000     0.530690000000     0.0413417  
H350     H      0.406280000000     0.216630000000     0.962550000000     0.0409923  
H351     H      0.405480000000     0.273060000000     0.961380000000     0.0414218  
H352     H      0.334420000000     0.273520000000     0.530590000000     0.0415699  
H353     H      0.420140000000     0.120320000000     0.843800000000     0.0446851  
H354     H      0.320670000000     0.120200000000     0.843710000000     0.0445012  
H355     H      0.320600000000     0.120340000000     0.899580000000     0.0445593  
H356     H      0.420060000000     0.120450000000     0.899680000000     0.0444765  
H357     H      0.320670000000     0.120230000000     0.593710000000     0.0445967  
H358     H      0.420130000000     0.120350000000     0.593810000000     0.0447132  
H359     H      0.420050000000     0.120460000000     0.649680000000     0.0445321  
H360     H      0.320590000000     0.120350000000     0.649580000000     0.0446788  
H361     H      0.405800000000     0.773000000000     0.778590000000     0.0414036  
H362     H      0.334530000000     0.773460000000     0.709590000000     0.0412697  
H363     H      0.334860000000     0.716980000000     0.708890000000     0.0415484  
H364     H      0.405070000000     0.716560000000     0.778960000000     0.0414868  
H365     H      0.320700000000     0.967040000000     0.745310000000     0.0446358  
H366     H      0.420160000000     0.967000000000     0.745600000000     0.0445945  
H367     H      0.420170000000     0.023010000000     0.746270000000     0.0446195  
H368     H      0.320710000000     0.023020000000     0.745970000000     0.0446706  
H369     H      0.334410000000     0.773050000000     0.528700000000     0.0412757  
H370     H      0.405690000000     0.773440000000     0.959720000000     0.0409187  
H371     H      0.404890000000     0.716990000000     0.958580000000     0.0412925  
H372     H      0.334660000000     0.716570000000     0.528630000000     0.0416174  
H373     H      0.419340000000     0.870380000000     0.897600000000     0.0445082  
H374     H      0.319890000000     0.869080000000     0.897670000000     0.0445605  
H375     H      0.319900000000     0.868870000000     0.841710000000     0.0447046  
H376     H      0.419350000000     0.870180000000     0.841810000000     0.0445897  
H377     H      0.420720000000     0.869070000000     0.647670000000     0.0446938  
H378     H      0.321270000000     0.870740000000     0.647600000000     0.0445528  
H379     H      0.321260000000     0.870550000000     0.591810000000     0.044564   
H380     H      0.420710000000     0.868880000000     0.591710000000     0.0446618  
H381     H      0.320690000000     0.967060000000     0.494870000000     0.044646   
H382     H      0.420150000000     0.967020000000     0.995830000000     0.0440895  
H383     H      0.420160000000     0.023020000000     0.996550000000     0.0441535  
H384     H      0.320700000000     0.023040000000     0.495590000000     0.0446964  
Ni1      Ni     0.342830000000     0.869800000000     0.995000000000     0.990961   
Ni2      Ni     0.397750000000     0.869710000000     0.994410000000     0.989743   
Ni3      Ni     0.342860000000     0.869780000000     0.244390000000     0.99504    
Ni4      Ni     0.397770000000     0.869700000000     0.244990000000     0.993563   
Ni5      Ni     0.342900000000     0.120290000000     0.996800000000     0.990615   
Ni6      Ni     0.397820000000     0.120340000000     0.996580000000     0.989841   
Ni7      Ni     0.342900000000     0.120260000000     0.246810000000     0.995048   
Ni8      Ni     0.397820000000     0.120320000000     0.246580000000     0.993755   
Ni9      Ni     0.869600000000     0.647100000000     0.994310000000     0.990501   
Ni10     Ni     0.869550000000     0.592190000000     0.993720000000     0.989735   
Ni11     Ni     0.869620000000     0.647100000000     0.243690000000     0.995041   
Ni12     Ni     0.869540000000     0.592190000000     0.244280000000     0.993691   
Ni13     Ni     0.120100000000     0.647130000000     0.993160000000     0.990751   
Ni14     Ni     0.120160000000     0.592210000000     0.993750000000     0.989782   
Ni15     Ni     0.120080000000     0.647140000000     0.243790000000     0.995376   
Ni16     Ni     0.120180000000     0.592220000000     0.243190000000     0.993627   
Ni17     Ni     0.646770000000     0.120170000000     0.994640000000     0.990894   
Ni18     Ni     0.591850000000     0.120240000000     0.994420000000     0.989739   
Ni19     Ni     0.646790000000     0.120140000000     0.244610000000     0.995788   
Ni20     Ni     0.591860000000     0.120280000000     0.244380000000     0.993413   
Ni21     Ni     0.646790000000     0.869700000000     0.993700000000     0.991033   
Ni22     Ni     0.591870000000     0.869600000000     0.994290000000     0.989768   
Ni23     Ni     0.646770000000     0.869720000000     0.244320000000     0.995149   
Ni24     Ni     0.591860000000     0.869600000000     0.243730000000     0.99342    
Ni25     Ni     0.369030000000     0.370390000000     0.021480000000     0.996822   
Ni26     Ni     0.370110000000     0.369160000000     0.466690000000     0.994651   
Ni27     Ni     0.369130000000     0.370080000000     0.273080000000     0.992156   
Ni28     Ni     0.370000000000     0.369430000000     0.218270000000     0.997012   
Ni29     Ni     0.369800000000     0.620620000000     0.465110000000     0.992237   
Ni30     Ni     0.369390000000     0.619960000000     0.019920000000     0.999648   
Ni31     Ni     0.369470000000     0.620040000000     0.216990000000     0.994535   
Ni32     Ni     0.369710000000     0.620510000000     0.271800000000     0.994492   
Ni33     Ni     0.620570000000     0.369910000000     0.022090000000     0.994719   
Ni34     Ni     0.619610000000     0.369430000000     0.467280000000     0.996889   
Ni35     Ni     0.620770000000     0.369510000000     0.271540000000     0.99301    
Ni36     Ni     0.619440000000     0.369820000000     0.216720000000     0.996476   
Ni37     Ni     0.619820000000     0.620420000000     0.021090000000     0.997527   
Ni38     Ni     0.620400000000     0.619960000000     0.466270000000     0.99433    
Ni39     Ni     0.620310000000     0.620030000000     0.271650000000     0.994364   
Ni40     Ni     0.619920000000     0.620350000000     0.216840000000     0.994688   
Ni41     Ni     0.120090000000     0.343050000000     0.991610000000     0.991033   
Ni42     Ni     0.120120000000     0.397970000000     0.991830000000     0.989675   
Ni43     Ni     0.120060000000     0.343080000000     0.241630000000     0.995426   
Ni44     Ni     0.120170000000     0.397990000000     0.241860000000     0.993117   
Ni45     Ni     0.869590000000     0.342860000000     0.991000000000     0.990755   
Ni46     Ni     0.869490000000     0.397770000000     0.991590000000     0.98966    
Ni47     Ni     0.869660000000     0.342830000000     0.241570000000     0.99573    
Ni48     Ni     0.869420000000     0.397750000000     0.240980000000     0.993156   
Ni49     Ni     0.342830000000     0.869800000000     0.495000000000     0.995131   
Ni50     Ni     0.397750000000     0.869710000000     0.494410000000     0.993736   
Ni51     Ni     0.342860000000     0.869780000000     0.744400000000     0.994634   
Ni52     Ni     0.397770000000     0.869700000000     0.744990000000     0.993816   
Ni53     Ni     0.342900000000     0.120290000000     0.496800000000     0.994829   
Ni54     Ni     0.397820000000     0.120340000000     0.496580000000     0.993604   
Ni55     Ni     0.342900000000     0.120260000000     0.746810000000     0.994896   
Ni56     Ni     0.397820000000     0.120320000000     0.746580000000     0.993774   
Ni57     Ni     0.869600000000     0.647100000000     0.494310000000     0.99466    
Ni58     Ni     0.869550000000     0.592190000000     0.493720000000     0.993734   
Ni59     Ni     0.869620000000     0.647100000000     0.743690000000     0.994878   
Ni60     Ni     0.869540000000     0.592190000000     0.744280000000     0.993702   
Ni61     Ni     0.120100000000     0.647130000000     0.493160000000     0.994834   
Ni62     Ni     0.120160000000     0.592210000000     0.493750000000     0.993872   
Ni63     Ni     0.120080000000     0.647140000000     0.743780000000     0.995207   
Ni64     Ni     0.120180000000     0.592220000000     0.743190000000     0.993638   
Ni65     Ni     0.646770000000     0.120170000000     0.494640000000     0.995068   
Ni66     Ni     0.591850000000     0.120240000000     0.494420000000     0.993693   
Ni67     Ni     0.646790000000     0.120140000000     0.744610000000     0.99563    
Ni68     Ni     0.591860000000     0.120280000000     0.744390000000     0.993422   
Ni69     Ni     0.646790000000     0.869700000000     0.493700000000     0.995131   
Ni70     Ni     0.591870000000     0.869600000000     0.494290000000     0.993808   
Ni71     Ni     0.646770000000     0.869720000000     0.744320000000     0.99498    
Ni72     Ni     0.591860000000     0.869600000000     0.743730000000     0.993428   
Ni73     Ni     0.369030000000     0.370390000000     0.521480000000     0.994029   
Ni74     Ni     0.370110000000     0.369160000000     0.966690000000     0.98957    
Ni75     Ni     0.369130000000     0.370080000000     0.773080000000     0.99218    
Ni76     Ni     0.370000000000     0.369430000000     0.718270000000     0.996895   
Ni77     Ni     0.369800000000     0.620620000000     0.965110000000     0.987033   
Ni78     Ni     0.369390000000     0.619960000000     0.519930000000     0.996986   
Ni79     Ni     0.369470000000     0.620040000000     0.716990000000     0.994448   
Ni80     Ni     0.369710000000     0.620510000000     0.771800000000     0.994559   
Ni81     Ni     0.620570000000     0.369910000000     0.522090000000     0.991989   
Ni82     Ni     0.619610000000     0.369430000000     0.967280000000     0.991813   
Ni83     Ni     0.620770000000     0.369510000000     0.771540000000     0.993122   
Ni84     Ni     0.619440000000     0.369820000000     0.716720000000     0.996343   
Ni85     Ni     0.619820000000     0.620420000000     0.521080000000     0.994693   
Ni86     Ni     0.620400000000     0.619960000000     0.966270000000     0.989447   
Ni87     Ni     0.620310000000     0.620030000000     0.771650000000     0.994434   
Ni88     Ni     0.619920000000     0.620350000000     0.716840000000     0.994604   
Ni89     Ni     0.120090000000     0.343050000000     0.491610000000     0.994913   
Ni90     Ni     0.120120000000     0.397970000000     0.491830000000     0.993784   
Ni91     Ni     0.120060000000     0.343080000000     0.741630000000     0.995262   
Ni92     Ni     0.120170000000     0.397990000000     0.741860000000     0.993127   
Ni93     Ni     0.869590000000     0.342860000000     0.491000000000     0.994841   
Ni94     Ni     0.869490000000     0.397770000000     0.491590000000     0.993691   
Ni95     Ni     0.869660000000     0.342830000000     0.741570000000     0.995574   
Ni96     Ni     0.869420000000     0.397750000000     0.740980000000     0.993169   
O1       O      0.344740000000     0.913850000000     0.494680000000    -0.435088   
O2       O      0.344540000000     0.825750000000     0.995510000000    -0.435186   
O3       O      0.345080000000     0.870130000000     0.038880000000    -0.432367   
O4       O      0.344250000000     0.869460000000     0.450960000000    -0.434194   
O5       O      0.395500000000     0.870250000000     0.450530000000    -0.435943   
O6       O      0.396330000000     0.869160000000     0.038440000000    -0.430765   
O7       O      0.395850000000     0.825650000000     0.493640000000    -0.43385    
O8       O      0.396000000000     0.913770000000     0.995010000000    -0.43512    
O9       O      0.344750000000     0.913830000000     0.245080000000    -0.434989   
O10      O      0.344590000000     0.825730000000     0.243520000000    -0.434155   
O11      O      0.344270000000     0.869130000000     0.288430000000    -0.434071   
O12      O      0.345110000000     0.870420000000     0.200520000000    -0.436038   
O13      O      0.396360000000     0.869470000000     0.200950000000    -0.43416    
O14      O      0.395530000000     0.869920000000     0.288870000000    -0.43582    
O15      O      0.395890000000     0.825640000000     0.245370000000    -0.43397    
O16      O      0.396010000000     0.913770000000     0.244780000000    -0.434893   
O17      O      0.344780000000     0.076240000000     0.996250000000    -0.435207   
O18      O      0.344650000000     0.164350000000     0.497530000000    -0.434067   
O19      O      0.344690000000     0.120800000000     0.452790000000    -0.434448   
O20      O      0.344780000000     0.119790000000     0.040710000000    -0.432195   
O21      O      0.396030000000     0.120660000000     0.040600000000    -0.430809   
O22      O      0.395950000000     0.120020000000     0.452670000000    -0.435675   
O23      O      0.395970000000     0.164390000000     0.996060000000    -0.434633   
O24      O      0.396040000000     0.076270000000     0.496880000000    -0.434808   
O25      O      0.344780000000     0.076210000000     0.246260000000    -0.435007   
O26      O      0.344630000000     0.164310000000     0.247550000000    -0.433975   
O27      O      0.344680000000     0.120780000000     0.202790000000    -0.434261   
O28      O      0.344780000000     0.119750000000     0.290710000000    -0.435711   
O29      O      0.396040000000     0.120630000000     0.290590000000    -0.434404   
O30      O      0.395940000000     0.120020000000     0.202670000000    -0.435621   
O31      O      0.395960000000     0.164380000000     0.246070000000    -0.433842   
O32      O      0.396040000000     0.076260000000     0.246870000000    -0.434879   
O33      O      0.913660000000     0.645220000000     0.493760000000    -0.434962   
O34      O      0.825550000000     0.645350000000     0.995060000000    -0.435344   
O35      O      0.870130000000     0.644850000000     0.038190000000    -0.432398   
O36      O      0.869070000000     0.645680000000     0.450270000000    -0.434122   
O37      O      0.869880000000     0.594430000000     0.449830000000    -0.43587    
O38      O      0.869220000000     0.593600000000     0.037750000000    -0.430662   
O39      O      0.825490000000     0.594040000000     0.493210000000    -0.433886   
O40      O      0.913610000000     0.593960000000     0.994070000000    -0.435136   
O41      O      0.913660000000     0.645210000000     0.244150000000    -0.435055   
O42      O      0.825560000000     0.645370000000     0.243010000000    -0.434087   
O43      O      0.869140000000     0.645680000000     0.287730000000    -0.434171   
O44      O      0.870080000000     0.644850000000     0.199810000000    -0.435915   
O45      O      0.869140000000     0.593600000000     0.200250000000    -0.434193   
O46      O      0.869940000000     0.594430000000     0.288170000000    -0.435849   
O47      O      0.825480000000     0.594060000000     0.244870000000    -0.43385    
O48      O      0.913600000000     0.593950000000     0.243840000000    -0.434912   
O49      O      0.076050000000     0.645240000000     0.993880000000    -0.435332   
O50      O      0.164150000000     0.645380000000     0.492220000000    -0.434109   
O51      O      0.119400000000     0.644880000000     0.449280000000    -0.435826   
O52      O      0.120810000000     0.645710000000     0.037190000000    -0.430496   
O53      O      0.120010000000     0.594450000000     0.037640000000    -0.43221    
O54      O      0.120320000000     0.593620000000     0.449720000000    -0.434152   
O55      O      0.164220000000     0.594070000000     0.994070000000    -0.435052   
O56      O      0.076100000000     0.593980000000     0.493570000000    -0.435004   
O57      O      0.076040000000     0.645230000000     0.243150000000    -0.435173   
O58      O      0.164130000000     0.645420000000     0.244640000000    -0.434127   
O59      O      0.120730000000     0.645720000000     0.199750000000    -0.434007   
O60      O      0.119450000000     0.644880000000     0.287660000000    -0.436161   
O61      O      0.120410000000     0.593630000000     0.287220000000    -0.43423    
O62      O      0.119950000000     0.594460000000     0.199300000000    -0.435692   
O63      O      0.164240000000     0.594110000000     0.242790000000    -0.433887   
O64      O      0.076110000000     0.593970000000     0.243460000000    -0.434868   
O65      O      0.644870000000     0.076120000000     0.494060000000    -0.435149   
O66      O      0.645040000000     0.164220000000     0.995450000000    -0.435421   
O67      O      0.644890000000     0.119600000000     0.038540000000    -0.432217   
O68      O      0.644980000000     0.120750000000     0.450620000000    -0.434565   
O69      O      0.593730000000     0.119990000000     0.450500000000    -0.435647   
O70      O      0.593640000000     0.120490000000     0.038430000000    -0.431008   
O71      O      0.593720000000     0.164300000000     0.493980000000    -0.433941   
O72      O      0.593620000000     0.076180000000     0.994670000000    -0.435221   
O73      O      0.644840000000     0.076100000000     0.244260000000    -0.435313   
O74      O      0.645110000000     0.164190000000     0.245130000000    -0.434267   
O75      O      0.644900000000     0.119830000000     0.288520000000    -0.435897   
O76      O      0.645000000000     0.120470000000     0.200600000000    -0.434444   
O77      O      0.593740000000     0.119770000000     0.200480000000    -0.435681   
O78      O      0.593650000000     0.120800000000     0.288400000000    -0.434323   
O79      O      0.593790000000     0.164340000000     0.243640000000    -0.433702   
O80      O      0.593580000000     0.076210000000     0.244890000000    -0.434709   
O81      O      0.644890000000     0.913740000000     0.994330000000    -0.435408   
O82      O      0.645070000000     0.825650000000     0.492860000000    -0.434289   
O83      O      0.644540000000     0.870310000000     0.449820000000    -0.43605    
O84      O      0.645370000000     0.869070000000     0.037740000000    -0.430554   
O85      O      0.594120000000     0.869850000000     0.038180000000    -0.432329   
O86      O      0.593290000000     0.869360000000     0.450260000000    -0.43435    
O87      O      0.593770000000     0.825550000000     0.994710000000    -0.435165   
O88      O      0.593630000000     0.913670000000     0.494030000000    -0.434923   
O89      O      0.644840000000     0.913760000000     0.243770000000    -0.435174   
O90      O      0.645080000000     0.825660000000     0.245080000000    -0.434071   
O91      O      0.645360000000     0.869160000000     0.200290000000    -0.433984   
O92      O      0.644520000000     0.870260000000     0.288200000000    -0.435995   
O93      O      0.593270000000     0.869270000000     0.287760000000    -0.434213   
O94      O      0.594100000000     0.869930000000     0.199840000000    -0.435697   
O95      O      0.593770000000     0.825540000000     0.243230000000    -0.433826   
O96      O      0.593580000000     0.913670000000     0.244100000000    -0.434751   
O97      O      0.367990000000     0.326270000000     0.020570000000    -0.429441   
O98      O      0.369950000000     0.414310000000     0.018730000000    -0.432479   
O99      O      0.325060000000     0.371450000000     0.018840000000    -0.430664   
O100     O      0.413190000000     0.369480000000     0.020470000000    -0.430075   
O101     O      0.414040000000     0.370090000000     0.469330000000    -0.436208   
O102     O      0.326000000000     0.368120000000     0.467720000000    -0.433379   
O103     O      0.369210000000     0.413310000000     0.467590000000    -0.433914   
O104     O      0.371180000000     0.325200000000     0.469450000000    -0.434507   
O105     O      0.368160000000     0.325990000000     0.271670000000    -0.433418   
O106     O      0.369960000000     0.414040000000     0.270870000000    -0.435576   
O107     O      0.325110000000     0.371090000000     0.270580000000    -0.433414   
O108     O      0.413330000000     0.369270000000     0.271830000000    -0.43282    
O109     O      0.413900000000     0.370370000000     0.220690000000    -0.43691    
O110     O      0.325940000000     0.368320000000     0.219430000000    -0.434377   
O111     O      0.369060000000     0.413560000000     0.219720000000    -0.434289   
O112     O      0.371120000000     0.325440000000     0.220530000000    -0.434583   
O113     O      0.370840000000     0.664630000000     0.467420000000    -0.433896   
O114     O      0.368970000000     0.576450000000     0.466520000000    -0.433271   
O115     O      0.325690000000     0.621620000000     0.466740000000    -0.432879   
O116     O      0.413790000000     0.619780000000     0.467140000000    -0.435448   
O117     O      0.413500000000     0.620870000000     0.018280000000    -0.430952   
O118     O      0.325410000000     0.618850000000     0.017900000000    -0.431199   
O119     O      0.370300000000     0.576030000000     0.017650000000    -0.433161   
O120     O      0.368310000000     0.664030000000     0.018580000000    -0.430327   
O121     O      0.368470000000     0.664150000000     0.218540000000    -0.43312    
O122     O      0.370290000000     0.576060000000     0.219060000000    -0.435805   
O123     O      0.325480000000     0.619010000000     0.218880000000    -0.434519   
O124     O      0.413580000000     0.620860000000     0.218780000000    -0.434203   
O125     O      0.413700000000     0.619620000000     0.269920000000    -0.435675   
O126     O      0.325620000000     0.621580000000     0.270050000000    -0.433352   
O127     O      0.368830000000     0.576400000000     0.270190000000    -0.434241   
O128     O      0.370830000000     0.664500000000     0.269720000000    -0.434457   
O129     O      0.664580000000     0.370900000000     0.019540000000    -0.429843   
O130     O      0.576380000000     0.369110000000     0.020920000000    -0.429283   
O131     O      0.621520000000     0.325800000000     0.020520000000    -0.429239   
O132     O      0.619760000000     0.413890000000     0.020010000000    -0.431844   
O133     O      0.620570000000     0.413540000000     0.468860000000    -0.434405   
O134     O      0.618480000000     0.325440000000     0.469380000000    -0.434786   
O135     O      0.575710000000     0.370380000000     0.469790000000    -0.436983   
O136     O      0.663690000000     0.368300000000     0.468380000000    -0.434177   
O137     O      0.664740000000     0.369250000000     0.268730000000    -0.434253   
O138     O      0.576600000000     0.369560000000     0.270720000000    -0.433741   
O139     O      0.620890000000     0.325500000000     0.269590000000    -0.434276   
O140     O      0.620770000000     0.413630000000     0.269800000000    -0.434123   
O141     O      0.619570000000     0.413810000000     0.218660000000    -0.436108   
O142     O      0.619180000000     0.325720000000     0.218380000000    -0.433538   
O143     O      0.575510000000     0.369880000000     0.219580000000    -0.436324   
O144     O      0.663570000000     0.369960000000     0.217510000000    -0.433455   
O145     O      0.618740000000     0.664400000000     0.019010000000    -0.430918   
O146     O      0.620710000000     0.576300000000     0.019480000000    -0.430609   
O147     O      0.663930000000     0.621470000000     0.019610000000    -0.429621   
O148     O      0.575850000000     0.619550000000     0.018920000000    -0.432336   
O149     O      0.576280000000     0.620810000000     0.467780000000    -0.434196   
O150     O      0.664380000000     0.618910000000     0.468450000000    -0.434636   
O151     O      0.619560000000     0.575970000000     0.468340000000    -0.435682   
O152     O      0.621410000000     0.664060000000     0.467850000000    -0.433318   
O153     O      0.621320000000     0.664120000000     0.269980000000    -0.433387   
O154     O      0.619490000000     0.576050000000     0.269710000000    -0.435855   
O155     O      0.664310000000     0.618990000000     0.269620000000    -0.434439   
O156     O      0.576190000000     0.620860000000     0.269980000000    -0.434072   
O157     O      0.575950000000     0.619480000000     0.218840000000    -0.435867   
O158     O      0.664010000000     0.621420000000     0.218450000000    -0.433394   
O159     O      0.620800000000     0.576230000000     0.218570000000    -0.434033   
O160     O      0.618820000000     0.664350000000     0.218810000000    -0.434392   
O161     O      0.076040000000     0.344910000000     0.492070000000    -0.435086   
O162     O      0.164140000000     0.344810000000     0.990940000000    -0.434829   
O163     O      0.120570000000     0.344840000000     0.035630000000    -0.430712   
O164     O      0.119630000000     0.344930000000     0.447700000000    -0.435894   
O165     O      0.120480000000     0.396180000000     0.447820000000    -0.43455    
O166     O      0.119770000000     0.396100000000     0.035740000000    -0.432058   
O167     O      0.164180000000     0.396130000000     0.492410000000    -0.433933   
O168     O      0.076060000000     0.396170000000     0.991440000000    -0.435049   
O169     O      0.076020000000     0.345000000000     0.241810000000    -0.435199   
O170     O      0.164120000000     0.344770000000     0.241290000000    -0.434019   
O171     O      0.120240000000     0.344860000000     0.285640000000    -0.434479   
O172     O      0.119900000000     0.344960000000     0.197720000000    -0.435735   
O173     O      0.120820000000     0.396210000000     0.197840000000    -0.434256   
O174     O      0.119510000000     0.396120000000     0.285760000000    -0.435582   
O175     O      0.164220000000     0.396090000000     0.242770000000    -0.433822   
O176     O      0.076090000000     0.396250000000     0.241190000000    -0.434715   
O177     O      0.913640000000     0.344780000000     0.991370000000    -0.435392   
O178     O      0.825530000000     0.344570000000     0.490490000000    -0.434155   
O179     O      0.869920000000     0.345100000000     0.447110000000    -0.435742   
O180     O      0.869250000000     0.344270000000     0.035030000000    -0.430529   
O181     O      0.870030000000     0.395530000000     0.035470000000    -0.432221   
O182     O      0.868950000000     0.396360000000     0.447550000000    -0.43407    
O183     O      0.825440000000     0.395870000000     0.992350000000    -0.435149   
O184     O      0.913550000000     0.396030000000     0.491040000000    -0.435086   
O185     O      0.913690000000     0.344850000000     0.241140000000    -0.435286   
O186     O      0.825610000000     0.344420000000     0.242190000000    -0.434235   
O187     O      0.869240000000     0.344240000000     0.197540000000    -0.434076   
O188     O      0.870060000000     0.345080000000     0.285460000000    -0.435848   
O189     O      0.868960000000     0.396330000000     0.285010000000    -0.43422    
O190     O      0.869890000000     0.395500000000     0.197100000000    -0.435809   
O191     O      0.825350000000     0.395730000000     0.240320000000    -0.433535   
O192     O      0.913500000000     0.396110000000     0.241450000000    -0.434631   
O193     O      0.344740000000     0.913850000000     0.994680000000    -0.435292   
O194     O      0.344540000000     0.825750000000     0.495500000000    -0.434107   
O195     O      0.345080000000     0.870130000000     0.538880000000    -0.435974   
O196     O      0.344250000000     0.869460000000     0.950960000000    -0.433584   
O197     O      0.395500000000     0.870250000000     0.950530000000    -0.435255   
O198     O      0.396330000000     0.869160000000     0.538440000000    -0.434386   
O199     O      0.395850000000     0.825650000000     0.993640000000    -0.434535   
O200     O      0.396000000000     0.913770000000     0.495010000000    -0.434924   
O201     O      0.344750000000     0.913830000000     0.745080000000    -0.435036   
O202     O      0.344590000000     0.825730000000     0.743520000000    -0.434167   
O203     O      0.344270000000     0.869130000000     0.788430000000    -0.434191   
O204     O      0.345110000000     0.870420000000     0.700510000000    -0.435895   
O205     O      0.396360000000     0.869470000000     0.700960000000    -0.434302   
O206     O      0.395530000000     0.869920000000     0.788870000000    -0.435871   
O207     O      0.395890000000     0.825640000000     0.745370000000    -0.434019   
O208     O      0.396010000000     0.913770000000     0.744780000000    -0.434959   
O209     O      0.344780000000     0.076240000000     0.496250000000    -0.435002   
O210     O      0.344650000000     0.164350000000     0.997530000000    -0.435154   
O211     O      0.344690000000     0.120800000000     0.952790000000    -0.433788   
O212     O      0.344780000000     0.119790000000     0.540710000000    -0.435787   
O213     O      0.396030000000     0.120660000000     0.540600000000    -0.434397   
O214     O      0.395950000000     0.120020000000     0.952680000000    -0.435047   
O215     O      0.395970000000     0.164390000000     0.496060000000    -0.433941   
O216     O      0.396040000000     0.076270000000     0.996880000000    -0.435033   
O217     O      0.344780000000     0.076210000000     0.746260000000    -0.435078   
O218     O      0.344630000000     0.164310000000     0.747550000000    -0.434027   
O219     O      0.344680000000     0.120780000000     0.702790000000    -0.434353   
O220     O      0.344780000000     0.119750000000     0.790710000000    -0.435759   
O221     O      0.396040000000     0.120630000000     0.790590000000    -0.434421   
O222     O      0.395940000000     0.120020000000     0.702670000000    -0.435688   
O223     O      0.395960000000     0.164380000000     0.746070000000    -0.433861   
O224     O      0.396040000000     0.076260000000     0.746870000000    -0.434917   
O225     O      0.913660000000     0.645220000000     0.993760000000    -0.435167   
O226     O      0.825550000000     0.645350000000     0.495060000000    -0.434257   
O227     O      0.870130000000     0.644850000000     0.538190000000    -0.435994   
O228     O      0.869070000000     0.645680000000     0.950270000000    -0.4335     
O229     O      0.869880000000     0.594430000000     0.949830000000    -0.435181   
O230     O      0.869220000000     0.593600000000     0.537750000000    -0.434281   
O231     O      0.825490000000     0.594040000000     0.993210000000    -0.434577   
O232     O      0.913610000000     0.593960000000     0.494070000000    -0.434936   
O233     O      0.913660000000     0.645210000000     0.744150000000    -0.435125   
O234     O      0.825560000000     0.645370000000     0.743010000000    -0.434131   
O235     O      0.869140000000     0.645680000000     0.787730000000    -0.434198   
O236     O      0.870080000000     0.644850000000     0.699810000000    -0.435984   
O237     O      0.869140000000     0.593600000000     0.700250000000    -0.434236   
O238     O      0.869940000000     0.594430000000     0.788170000000    -0.435846   
O239     O      0.825480000000     0.594060000000     0.744870000000    -0.433871   
O240     O      0.913600000000     0.593950000000     0.743840000000    -0.43495    
O241     O      0.076050000000     0.645240000000     0.493880000000    -0.435106   
O242     O      0.164150000000     0.645380000000     0.992220000000    -0.434802   
O243     O      0.119400000000     0.644880000000     0.949280000000    -0.435173   
O244     O      0.120810000000     0.645710000000     0.537190000000    -0.434123   
O245     O      0.120010000000     0.594450000000     0.537640000000    -0.435782   
O246     O      0.120320000000     0.593620000000     0.949720000000    -0.433504   
O247     O      0.164220000000     0.594070000000     0.494070000000    -0.433949   
O248     O      0.076100000000     0.593980000000     0.993570000000    -0.435186   
O249     O      0.076040000000     0.645230000000     0.743150000000    -0.435246   
O250     O      0.164130000000     0.645420000000     0.744640000000    -0.434173   
O251     O      0.120730000000     0.645720000000     0.699750000000    -0.434219   
O252     O      0.119450000000     0.644880000000     0.787660000000    -0.436044   
O253     O      0.120410000000     0.593630000000     0.787220000000    -0.434193   
O254     O      0.119950000000     0.594460000000     0.699300000000    -0.435764   
O255     O      0.164240000000     0.594110000000     0.742790000000    -0.433901   
O256     O      0.076110000000     0.593970000000     0.743460000000    -0.434907   
O257     O      0.644870000000     0.076120000000     0.994060000000    -0.435351   
O258     O      0.645040000000     0.164220000000     0.495450000000    -0.434339   
O259     O      0.644890000000     0.119600000000     0.538540000000    -0.435814   
O260     O      0.644980000000     0.120750000000     0.950620000000    -0.433913   
O261     O      0.593730000000     0.119990000000     0.950500000000    -0.434924   
O262     O      0.593640000000     0.120490000000     0.538430000000    -0.43464    
O263     O      0.593720000000     0.164300000000     0.993980000000    -0.434603   
O264     O      0.593620000000     0.076180000000     0.494670000000    -0.435027   
O265     O      0.644840000000     0.076100000000     0.744260000000    -0.435385   
O266     O      0.645110000000     0.164190000000     0.745130000000    -0.434319   
O267     O      0.644900000000     0.119830000000     0.788520000000    -0.435943   
O268     O      0.645000000000     0.120470000000     0.700600000000    -0.434519   
O269     O      0.593740000000     0.119770000000     0.700480000000    -0.435626   
O270     O      0.593650000000     0.120800000000     0.788400000000    -0.43444    
O271     O      0.593790000000     0.164340000000     0.743640000000    -0.433716   
O272     O      0.593580000000     0.076210000000     0.744890000000    -0.434749   
O273     O      0.644890000000     0.913740000000     0.494330000000    -0.435183   
O274     O      0.645070000000     0.825650000000     0.992860000000    -0.434978   
O275     O      0.644540000000     0.870310000000     0.949820000000    -0.435391   
O276     O      0.645370000000     0.869070000000     0.537740000000    -0.43418    
O277     O      0.594120000000     0.869850000000     0.538180000000    -0.435913   
O278     O      0.593290000000     0.869360000000     0.950260000000    -0.433684   
O279     O      0.593770000000     0.825550000000     0.494710000000    -0.434086   
O280     O      0.593630000000     0.913670000000     0.994030000000    -0.435101   
O281     O      0.644840000000     0.913760000000     0.743770000000    -0.435245   
O282     O      0.645080000000     0.825660000000     0.745090000000    -0.434114   
O283     O      0.645360000000     0.869160000000     0.700290000000    -0.434069   
O284     O      0.644520000000     0.870260000000     0.788200000000    -0.436006   
O285     O      0.593270000000     0.869270000000     0.787760000000    -0.434204   
O286     O      0.594100000000     0.869930000000     0.699840000000    -0.435743   
O287     O      0.593770000000     0.825540000000     0.743230000000    -0.433838   
O288     O      0.593580000000     0.913670000000     0.744100000000    -0.43479    
O289     O      0.367990000000     0.326270000000     0.520570000000    -0.433205   
O290     O      0.369950000000     0.414310000000     0.518730000000    -0.436006   
O291     O      0.325060000000     0.371450000000     0.518840000000    -0.434356   
O292     O      0.413190000000     0.369480000000     0.520470000000    -0.433771   
O293     O      0.414040000000     0.370090000000     0.969330000000    -0.435019   
O294     O      0.326000000000     0.368120000000     0.967720000000    -0.432226   
O295     O      0.369210000000     0.413310000000     0.967590000000    -0.4327     
O296     O      0.371180000000     0.325200000000     0.969450000000    -0.433298   
O297     O      0.368160000000     0.325990000000     0.771680000000    -0.433241   
O298     O      0.369960000000     0.414040000000     0.770870000000    -0.435563   
O299     O      0.325110000000     0.371090000000     0.770580000000    -0.433416   
O300     O      0.413330000000     0.369270000000     0.771830000000    -0.432804   
O301     O      0.413900000000     0.370370000000     0.720690000000    -0.436931   
O302     O      0.325940000000     0.368320000000     0.719430000000    -0.434416   
O303     O      0.369060000000     0.413560000000     0.719720000000    -0.434306   
O304     O      0.371120000000     0.325440000000     0.720530000000    -0.43456    
O305     O      0.370840000000     0.664630000000     0.967420000000    -0.432673   
O306     O      0.368970000000     0.576450000000     0.966520000000    -0.432125   
O307     O      0.325690000000     0.621620000000     0.966740000000    -0.431708   
O308     O      0.413790000000     0.619780000000     0.967140000000    -0.434247   
O309     O      0.413500000000     0.620870000000     0.518280000000    -0.434684   
O310     O      0.325410000000     0.618850000000     0.517900000000    -0.434931   
O311     O      0.370300000000     0.576030000000     0.517650000000    -0.43682    
O312     O      0.368310000000     0.664030000000     0.518580000000    -0.434128   
O313     O      0.368470000000     0.664150000000     0.718540000000    -0.433173   
O314     O      0.370290000000     0.576060000000     0.719060000000    -0.435825   
O315     O      0.325480000000     0.619010000000     0.718880000000    -0.434562   
O316     O      0.413580000000     0.620860000000     0.718780000000    -0.43423    
O317     O      0.413700000000     0.619620000000     0.769920000000    -0.435671   
O318     O      0.325620000000     0.621580000000     0.770050000000    -0.433358   
O319     O      0.368830000000     0.576400000000     0.770190000000    -0.434239   
O320     O      0.370830000000     0.664500000000     0.769720000000    -0.434463   
O321     O      0.664580000000     0.370900000000     0.519530000000    -0.433721   
O322     O      0.576380000000     0.369110000000     0.520920000000    -0.432987   
O323     O      0.621520000000     0.325800000000     0.520520000000    -0.433018   
O324     O      0.619760000000     0.413890000000     0.520010000000    -0.435473   
O325     O      0.620570000000     0.413540000000     0.968860000000    -0.433282   
O326     O      0.618480000000     0.325440000000     0.969380000000    -0.433577   
O327     O      0.575710000000     0.370380000000     0.969790000000    -0.435794   
O328     O      0.663690000000     0.368300000000     0.968380000000    -0.432943   
O329     O      0.664740000000     0.369250000000     0.768730000000    -0.434258   
O330     O      0.576600000000     0.369560000000     0.770720000000    -0.43374    
O331     O      0.620890000000     0.325500000000     0.769590000000    -0.43437    
O332     O      0.620770000000     0.413630000000     0.769800000000    -0.434123   
O333     O      0.619570000000     0.413810000000     0.718660000000    -0.436123   
O334     O      0.619180000000     0.325720000000     0.718380000000    -0.433498   
O335     O      0.575510000000     0.369880000000     0.719580000000    -0.436347   
O336     O      0.663570000000     0.369960000000     0.717510000000    -0.4335     
O337     O      0.618740000000     0.664400000000     0.519010000000    -0.434583   
O338     O      0.620710000000     0.576300000000     0.519480000000    -0.434269   
O339     O      0.663930000000     0.621470000000     0.519610000000    -0.433347   
O340     O      0.575850000000     0.619550000000     0.518920000000    -0.435935   
O341     O      0.576280000000     0.620810000000     0.967780000000    -0.433092   
O342     O      0.664380000000     0.618910000000     0.968450000000    -0.433463   
O343     O      0.619560000000     0.575970000000     0.968340000000    -0.434529   
O344     O      0.621410000000     0.664060000000     0.967850000000    -0.432188   
O345     O      0.621320000000     0.664120000000     0.769980000000    -0.43339    
O346     O      0.619490000000     0.576050000000     0.769710000000    -0.435853   
O347     O      0.664310000000     0.618990000000     0.769620000000    -0.434444   
O348     O      0.576190000000     0.620860000000     0.769980000000    -0.43407    
O349     O      0.575950000000     0.619480000000     0.718840000000    -0.43589    
O350     O      0.664010000000     0.621420000000     0.718450000000    -0.433442   
O351     O      0.620800000000     0.576230000000     0.718570000000    -0.434062   
O352     O      0.618820000000     0.664350000000     0.718810000000    -0.434437   
O353     O      0.076040000000     0.344910000000     0.992070000000    -0.435334   
O354     O      0.164140000000     0.344810000000     0.490940000000    -0.434116   
O355     O      0.120570000000     0.344840000000     0.535630000000    -0.434306   
O356     O      0.119630000000     0.344930000000     0.947710000000    -0.435313   
O357     O      0.120480000000     0.396180000000     0.947820000000    -0.433861   
O358     O      0.119770000000     0.396100000000     0.535740000000    -0.435639   
O359     O      0.164180000000     0.396130000000     0.992410000000    -0.435025   
O360     O      0.076060000000     0.396170000000     0.491440000000    -0.434875   
O361     O      0.076020000000     0.345000000000     0.741810000000    -0.43527    
O362     O      0.164120000000     0.344770000000     0.741290000000    -0.434064   
O363     O      0.120240000000     0.344860000000     0.785640000000    -0.434505   
O364     O      0.119900000000     0.344960000000     0.697720000000    -0.435807   
O365     O      0.120820000000     0.396210000000     0.697840000000    -0.434298   
O366     O      0.119510000000     0.396120000000     0.785760000000    -0.435579   
O367     O      0.164220000000     0.396090000000     0.742770000000    -0.433842   
O368     O      0.076090000000     0.396250000000     0.741190000000    -0.434755   
O369     O      0.913640000000     0.344780000000     0.491370000000    -0.435172   
O370     O      0.825530000000     0.344570000000     0.990490000000    -0.434847   
O371     O      0.869920000000     0.345100000000     0.947110000000    -0.435087   
O372     O      0.869250000000     0.344270000000     0.535030000000    -0.434165   
O373     O      0.870030000000     0.395530000000     0.535470000000    -0.435812   
O374     O      0.868950000000     0.396360000000     0.947550000000    -0.433405   
O375     O      0.825440000000     0.395870000000     0.492350000000    -0.434075   
O376     O      0.913550000000     0.396030000000     0.991040000000    -0.435259   
O377     O      0.913690000000     0.344850000000     0.741140000000    -0.435359   
O378     O      0.825610000000     0.344420000000     0.742180000000    -0.434295   
O379     O      0.869240000000     0.344240000000     0.697540000000    -0.434157   
O380     O      0.870060000000     0.345080000000     0.785460000000    -0.43589    
O381     O      0.868960000000     0.396330000000     0.785010000000    -0.434223   
O382     O      0.869890000000     0.395500000000     0.697100000000    -0.435864   
O383     O      0.825350000000     0.395730000000     0.740320000000    -0.433555   
O384     O      0.913500000000     0.396110000000     0.741450000000    -0.43467    


