data_structure

_audit_creation_method RASPA-1.0
_audit_creation_date 2023-5-22
_audit_author_name 'Poobodin Mano'

_cell_length_a    43.5518
_cell_length_b    43.5514
_cell_length_c    32.5938
_cell_angle_alpha 89.9995
_cell_angle_beta  90.001
_cell_angle_gamma 119.999
_cell_volume      53540

_symmetry_cell_setting          triclinic
_symmetry_space_group_name_Hall 'P 1'
_symmetry_space_group_name_H-M  'P 1'
_symmetry_Int_Tables_number     1

_symmetry_equiv_pos_as_xyz 'x,y,z'

loop_
_atom_site_label
_atom_site_type_symbol
_atom_site_fract_x
_atom_site_fract_y
_atom_site_fract_z
_atom_site_charge
C1       C      0.990960000000     0.994010000000     0.250230000000     0.364591   
C2       C      0.991180000000     0.494080000000     0.406530000000     0.367671   
C3       C      0.049560000000     0.052550000000     0.328260000000     0.378352   
C4       C      0.432540000000     0.435530000000     0.328500000000     0.378701   
C5       C      0.432510000000     0.185530000000     0.328540000000     0.378715   
C6       C      0.049530000000     0.302550000000     0.328230000000     0.377996   
C7       C      0.491200000000     0.244100000000     0.406490000000     0.379069   
C8       C      0.490840000000     0.243980000000     0.250270000000     0.378902   
C9       C      0.299520000000     0.052550000000     0.328530000000     0.378701   
C10      C      0.182500000000     0.435530000000     0.328260000000     0.378801   
C11      C      0.241190000000     0.994100000000     0.250260000000     0.378528   
C12      C      0.240820000000     0.993980000000     0.406480000000     0.378709   
C13      C      0.182520000000     0.185540000000     0.328290000000     0.378562   
C14      C      0.299540000000     0.302560000000     0.328490000000     0.378664   
C15      C      0.241130000000     0.244090000000     0.250280000000     0.379224   
C16      C      0.240900000000     0.244010000000     0.406500000000     0.378876   
C17      C      0.049710000000     0.994070000000     0.995180000000     0.377282   
C18      C      0.432690000000     0.994070000000     0.994840000000     0.37776    
C19      C      0.491340000000     0.994090000000     0.916900000000     0.378273   
C20      C      0.491060000000     0.994050000000     0.073120000000     0.378025   
C21      C      0.049390000000     0.244010000000     0.995240000000     0.37815    
C22      C      0.432370000000     0.244010000000     0.994870000000     0.378014   
C23      C      0.490730000000     0.243980000000     0.073160000000     0.378355   
C24      C      0.491060000000     0.244040000000     0.916940000000     0.378631   
C25      C      0.299710000000     0.994080000000     0.994870000000     0.377891   
C26      C      0.182690000000     0.994080000000     0.995210000000     0.378237   
C27      C      0.241030000000     0.994050000000     0.916930000000     0.37837    
C28      C      0.241330000000     0.994110000000     0.073150000000     0.378076   
C29      C      0.182370000000     0.244020000000     0.995240000000     0.378377   
C30      C      0.299390000000     0.244020000000     0.994880000000     0.378433   
C31      C      0.240730000000     0.244010000000     0.916950000000     0.378638   
C32      C      0.241030000000     0.244040000000     0.073170000000     0.37848    
C33      C      0.491500000000     0.994080000000     0.739780000000     0.37873    
C34      C      0.491420000000     0.494100000000     0.583640000000     0.379089   
C35      C      0.491470000000     0.052600000000     0.661700000000     0.37869    
C36      C      0.491470000000     0.435580000000     0.661720000000     0.378409   
C37      C      0.991460000000     0.185570000000     0.661700000000     0.367733   
C38      C      0.991460000000     0.302600000000     0.661730000000     0.367403   
C39      C      0.991420000000     0.244050000000     0.739830000000     0.367833   
C40      C      0.991460000000     0.244110000000     0.583610000000     0.368166   
C41      C      0.240600000000     0.052530000000     0.661710000000     0.37828    
C42      C      0.240600000000     0.435510000000     0.661750000000     0.378603   
C43      C      0.240650000000     0.994040000000     0.739820000000     0.378414   
C44      C      0.240590000000     0.994000000000     0.583600000000     0.378674   
C45      C      0.240590000000     0.185500000000     0.661750000000     0.378382   
C46      C      0.240590000000     0.302520000000     0.661700000000     0.378389   
C47      C      0.240640000000     0.244000000000     0.583620000000     0.379044   
C48      C      0.240550000000     0.244010000000     0.739840000000     0.378993   
C49      C      0.272690000000     0.401100000000     0.661740000000    -0.00278655 
C50      C      0.240600000000     0.401480000000     0.661740000000    -0.0892896  
C51      C      0.208500000000     0.369010000000     0.661710000000    -0.00273279 
C52      C      0.208500000000     0.336920000000     0.661720000000    -0.00267176 
C53      C      0.240590000000     0.336540000000     0.661710000000    -0.0893583  
C54      C      0.272680000000     0.369010000000     0.661710000000    -0.00271043 
C55      C      0.272680000000     0.151100000000     0.661760000000    -0.00270733 
C56      C      0.240590000000     0.151480000000     0.661750000000    -0.0893308  
C57      C      0.208500000000     0.119010000000     0.661730000000    -0.00266818 
C58      C      0.208500000000     0.086920000000     0.661730000000    -0.00271144 
C59      C      0.240600000000     0.086550000000     0.661720000000    -0.0892529  
C60      C      0.272690000000     0.119020000000     0.661720000000    -0.00276506 
C61      C      0.459380000000     0.369090000000     0.661720000000    -0.00270219 
C62      C      0.491470000000     0.401560000000     0.661720000000    -0.0894019  
C63      C      0.023560000000     0.401180000000     0.661730000000     0.00717003 
C64      C      0.023560000000     0.369090000000     0.661720000000     0.00708669 
C65      C      0.491460000000     0.336620000000     0.661730000000    -0.0893272  
C66      C      0.459370000000     0.337000000000     0.661750000000    -0.00278403 
C67      C      0.459380000000     0.087000000000     0.661720000000    -0.00271188 
C68      C      0.491470000000     0.086620000000     0.661700000000    -0.0894099  
C69      C      0.023560000000     0.119090000000     0.661690000000     0.00712253 
C70      C      0.023560000000     0.151180000000     0.661710000000     0.00717275 
C71      C      0.491460000000     0.151560000000     0.661700000000    -0.0895511  
C72      C      0.459370000000     0.119080000000     0.661690000000    -0.0026623  
C73      C      0.268320000000     0.271940000000     0.849810000000    -0.00152899 
C74      C      0.240660000000     0.244010000000     0.871660000000    -0.0892541  
C75      C      0.212930000000     0.216090000000     0.849860000000    -0.00146337 
C76      C      0.212650000000     0.216320000000     0.806970000000    -0.00144644 
C77      C      0.240560000000     0.244020000000     0.785130000000    -0.0893693  
C78      C      0.268500000000     0.271720000000     0.806930000000    -0.00149343 
C79      C      0.268550000000     0.021980000000     0.849760000000    -0.00120966 
C80      C      0.240910000000     0.994050000000     0.871640000000    -0.0895403  
C81      C      0.213150000000     0.466120000000     0.849910000000    -0.00151794 
C82      C      0.212820000000     0.466360000000     0.807020000000    -0.00142534 
C83      C      0.240710000000     0.994060000000     0.785100000000    -0.0896216  
C84      C      0.268680000000     0.021760000000     0.806880000000    -0.00121538 
C85      C      0.365880000000     0.211920000000     0.994800000000    -0.0029535  
C86      C      0.398350000000     0.244010000000     0.994800000000    -0.0895325  
C87      C      0.397980000000     0.276110000000     0.994790000000    -0.00298283 
C88      C      0.365890000000     0.276110000000     0.994810000000    -0.00286381 
C89      C      0.333410000000     0.244020000000     0.994810000000    -0.0896845  
C90      C      0.333790000000     0.211920000000     0.994780000000    -0.00289434 
C91      C      0.083790000000     0.211920000000     0.995300000000    -0.00275245 
C92      C      0.083410000000     0.244010000000     0.995300000000    -0.0880522  
C93      C      0.115880000000     0.276110000000     0.995330000000    -0.00290648 
C94      C      0.147970000000     0.276110000000     0.995310000000    -0.00241295 
C95      C      0.148350000000     0.244020000000     0.995300000000    -0.0895607  
C96      C      0.115880000000     0.211920000000     0.995320000000    -0.00212056 
C97      C      0.463530000000     0.216110000000     0.849770000000    -0.00158935 
C98      C      0.491170000000     0.244040000000     0.871650000000    -0.0892549  
C99      C      0.018930000000     0.271970000000     0.849880000000     0.00832558 
C100     C      0.019260000000     0.271730000000     0.807000000000     0.00839096 
C101     C      0.991370000000     0.244040000000     0.785120000000    -0.0984171  
C102     C      0.463400000000     0.216340000000     0.806890000000    -0.00149487 
C103     C      0.398290000000     0.026170000000     0.994760000000    -0.00270474 
C104     C      0.398660000000     0.994070000000     0.994790000000    -0.0897301  
C105     C      0.366190000000     0.461980000000     0.994850000000    -0.00292693 
C106     C      0.334100000000     0.461980000000     0.994830000000    -0.00293394 
C107     C      0.333730000000     0.994080000000     0.994800000000    -0.0899517  
C108     C      0.366200000000     0.026170000000     0.994790000000    -0.00254539 
C109     C      0.084100000000     0.461980000000     0.995320000000    -0.00280218 
C110     C      0.083730000000     0.994070000000     0.995250000000    -0.0881773  
C111     C      0.116200000000     0.026170000000     0.995270000000    -0.0026916  
C112     C      0.148290000000     0.026170000000     0.995260000000    -0.00207444 
C113     C      0.148670000000     0.994080000000     0.995260000000    -0.0898725  
C114     C      0.116190000000     0.461980000000     0.995330000000    -0.00211961 
C115     C      0.519130000000     0.022010000000     0.849810000000    -0.00125277 
C116     C      0.491410000000     0.994090000000     0.871610000000    -0.0895506  
C117     C      0.963740000000     0.466150000000     0.849830000000    -0.00147786 
C118     C      0.963550000000     0.466380000000     0.806950000000    -0.00131798 
C119     C      0.491500000000     0.994070000000     0.785070000000    -0.0897672  
C120     C      0.519410000000     0.021770000000     0.806920000000    -0.00115533 
C121     C      0.268480000000     0.243750000000     0.473690000000    -0.00153419 
C122     C      0.240820000000     0.243980000000     0.451790000000    -0.089304   
C123     C      0.213080000000     0.244210000000     0.473540000000    -0.00150117 
C124     C      0.212780000000     0.243740000000     0.516430000000    -0.00142847 
C125     C      0.240680000000     0.243980000000     0.538330000000    -0.0893795  
C126     C      0.268640000000     0.244200000000     0.516570000000    -0.00152913 
C127     C      0.240930000000     0.271790000000     0.183170000000    -0.00105017 
C128     C      0.241160000000     0.244100000000     0.205000000000    -0.089428   
C129     C      0.241380000000     0.216390000000     0.183170000000    -0.00117346 
C130     C      0.240890000000     0.216150000000     0.140280000000    -0.00141559 
C131     C      0.241100000000     0.244060000000     0.118460000000    -0.088576   
C132     C      0.241350000000     0.272000000000     0.140280000000    -0.00152397 
C133     C      0.213000000000     0.494180000000     0.473560000000    -0.00142307 
C134     C      0.240730000000     0.993960000000     0.451770000000    -0.0893802  
C135     C      0.268390000000     0.993720000000     0.473660000000    -0.00157207 
C136     C      0.268560000000     0.994180000000     0.516550000000    -0.00155726 
C137     C      0.240610000000     0.993960000000     0.538310000000    -0.0893472  
C138     C      0.212710000000     0.493720000000     0.516450000000    -0.00144462 
C139     C      0.241080000000     0.021830000000     0.183130000000    -0.000869972
C140     C      0.241270000000     0.994130000000     0.204970000000    -0.0894779  
C141     C      0.241530000000     0.466430000000     0.183200000000    -0.00112636 
C142     C      0.241110000000     0.466200000000     0.140320000000    -0.0014977  
C143     C      0.241360000000     0.994130000000     0.118440000000    -0.0888991  
C144     C      0.241570000000     0.022060000000     0.140250000000    -0.00115171 
C145     C      0.019030000000     0.243910000000     0.473540000000     0.00840162 
C146     C      0.491300000000     0.244130000000     0.451780000000    -0.0894308  
C147     C      0.463640000000     0.244380000000     0.473680000000    -0.00158097 
C148     C      0.463480000000     0.243920000000     0.516560000000    -0.00141938 
C149     C      0.991430000000     0.244150000000     0.538320000000    -0.0985448  
C150     C      0.019330000000     0.244380000000     0.516420000000     0.0084111  
C151     C      0.398100000000     0.119030000000     0.328610000000    -0.00278547 
C152     C      0.398480000000     0.151510000000     0.328590000000    -0.0893927  
C153     C      0.366010000000     0.151130000000     0.328580000000    -0.00266974 
C154     C      0.333920000000     0.119050000000     0.328600000000    -0.00276512 
C155     C      0.333540000000     0.086570000000     0.328580000000    -0.0894166  
C156     C      0.366010000000     0.086950000000     0.328590000000    -0.00265009 
C157     C      0.083920000000     0.369040000000     0.328190000000    -0.00268883 
C158     C      0.083550000000     0.336570000000     0.328190000000    -0.087637   
C159     C      0.116020000000     0.336950000000     0.328170000000    -0.00285437 
C160     C      0.148100000000     0.369040000000     0.328200000000    -0.00212507 
C161     C      0.148480000000     0.401510000000     0.328200000000    -0.0894277  
C162     C      0.116010000000     0.401130000000     0.328170000000    -0.00180734 
C163     C      0.490510000000     0.271650000000     0.183180000000    -0.00126605 
C164     C      0.490760000000     0.243960000000     0.204990000000    -0.0894491  
C165     C      0.990970000000     0.216250000000     0.183140000000    -0.00363063 
C166     C      0.990480000000     0.216020000000     0.140260000000    -0.00348652 
C167     C      0.490700000000     0.243960000000     0.118450000000    -0.0886833  
C168     C      0.490940000000     0.271880000000     0.140290000000    -0.00159623 
C169     C      0.018990000000     0.493890000000     0.473570000000     0.00835886 
C170     C      0.491250000000     0.494110000000     0.451810000000    -0.0894269  
C171     C      0.463590000000     0.994350000000     0.473630000000    -0.00163012 
C172     C      0.463420000000     0.993890000000     0.516520000000    -0.00161962 
C173     C      0.491380000000     0.494120000000     0.538350000000    -0.089496   
C174     C      0.019280000000     0.494350000000     0.516460000000     0.00845532 
C175     C      0.366050000000     0.401140000000     0.328530000000    -0.00270827 
C176     C      0.398520000000     0.401510000000     0.328540000000    -0.0894519  
C177     C      0.398130000000     0.369030000000     0.328550000000    -0.00274433 
C178     C      0.366030000000     0.336950000000     0.328530000000    -0.00267474 
C179     C      0.333570000000     0.336580000000     0.328530000000    -0.0894351  
C180     C      0.333960000000     0.369060000000     0.328550000000    -0.00271002 
C181     C      0.083950000000     0.119040000000     0.328240000000    -0.00258948 
C182     C      0.083580000000     0.086570000000     0.328230000000    -0.0877682  
C183     C      0.116060000000     0.086960000000     0.328220000000    -0.00271442 
C184     C      0.148140000000     0.119050000000     0.328250000000    -0.00223161 
C185     C      0.148510000000     0.151520000000     0.328250000000    -0.0893058  
C186     C      0.116030000000     0.151130000000     0.328230000000    -0.00192799 
C187     C      0.990720000000     0.021710000000     0.183120000000    -0.00289195 
C188     C      0.990940000000     0.994000000000     0.204940000000    -0.0874041  
C189     C      0.491170000000     0.466300000000     0.183190000000    -0.00131728 
C190     C      0.490740000000     0.466090000000     0.140310000000    -0.00159476 
C191     C      0.991000000000     0.994030000000     0.118410000000    -0.0867346  
C192     C      0.991210000000     0.021950000000     0.140230000000    -0.00360827 
C193     C      0.990960000000     0.494000000000     0.250310000000     0.364954   
C194     C      0.991170000000     0.994070000000     0.406450000000     0.367367   
C195     C      0.049560000000     0.552550000000     0.328320000000     0.378379   
C196     C      0.432540000000     0.935530000000     0.328430000000     0.378418   
C197     C      0.432510000000     0.685530000000     0.328530000000     0.378452   
C198     C      0.049530000000     0.802550000000     0.328210000000     0.378007   
C199     C      0.491210000000     0.744100000000     0.406480000000     0.379043   
C200     C      0.490840000000     0.743980000000     0.250260000000     0.378853   
C201     C      0.299520000000     0.552550000000     0.328560000000     0.378717   
C202     C      0.182500000000     0.935530000000     0.328220000000     0.3788     
C203     C      0.241180000000     0.494100000000     0.250300000000     0.379197   
C204     C      0.240820000000     0.493980000000     0.406520000000     0.379105   
C205     C      0.182520000000     0.685550000000     0.328290000000     0.378865   
C206     C      0.299540000000     0.802570000000     0.328450000000     0.378428   
C207     C      0.241110000000     0.744080000000     0.250260000000     0.378883   
C208     C      0.240910000000     0.744030000000     0.406480000000     0.37939    
C209     C      0.049700000000     0.494070000000     0.995250000000     0.377725   
C210     C      0.432680000000     0.494070000000     0.994910000000     0.378103   
C211     C      0.491330000000     0.494090000000     0.916970000000     0.378582   
C212     C      0.491050000000     0.494050000000     0.073190000000     0.378398   
C213     C      0.049370000000     0.744010000000     0.995220000000     0.377813   
C214     C      0.432350000000     0.744010000000     0.994860000000     0.378015   
C215     C      0.490720000000     0.743980000000     0.073150000000     0.378383   
C216     C      0.491040000000     0.744040000000     0.916930000000     0.378619   
C217     C      0.299700000000     0.494080000000     0.994900000000     0.378315   
C218     C      0.182680000000     0.494080000000     0.995250000000     0.378533   
C219     C      0.241020000000     0.494050000000     0.916970000000     0.378737   
C220     C      0.241330000000     0.494110000000     0.073190000000     0.378453   
C221     C      0.182350000000     0.744020000000     0.995220000000     0.3784     
C222     C      0.299370000000     0.744020000000     0.994860000000     0.378341   
C223     C      0.240710000000     0.744010000000     0.916930000000     0.378876   
C224     C      0.241010000000     0.744040000000     0.073150000000     0.378483   
C225     C      0.491500000000     0.494090000000     0.739860000000     0.379022   
C226     C      0.491420000000     0.994100000000     0.583560000000     0.37833    
C227     C      0.491470000000     0.552600000000     0.661770000000     0.378595   
C228     C      0.491470000000     0.935580000000     0.661650000000     0.378754   
C229     C      0.991450000000     0.685570000000     0.661710000000     0.367686   
C230     C      0.991450000000     0.802590000000     0.661700000000     0.367786   
C231     C      0.991410000000     0.744060000000     0.739810000000     0.368033   
C232     C      0.991460000000     0.744100000000     0.583590000000     0.368176   
C233     C      0.240600000000     0.552530000000     0.661740000000     0.378295   
C234     C      0.240600000000     0.935510000000     0.661710000000     0.378499   
C235     C      0.240650000000     0.494040000000     0.739850000000     0.378871   
C236     C      0.240590000000     0.493990000000     0.583630000000     0.378971   
C237     C      0.240590000000     0.685500000000     0.661740000000     0.378574   
C238     C      0.240590000000     0.802520000000     0.661670000000     0.378722   
C239     C      0.240650000000     0.744000000000     0.583600000000     0.379069   
C240     C      0.240550000000     0.744020000000     0.739820000000     0.37904    
C241     C      0.272690000000     0.901100000000     0.661700000000    -0.00274676 
C242     C      0.240600000000     0.901490000000     0.661690000000    -0.0893307  
C243     C      0.208500000000     0.869010000000     0.661670000000    -0.00275875 
C244     C      0.208500000000     0.836930000000     0.661680000000    -0.00262377 
C245     C      0.240590000000     0.836540000000     0.661670000000    -0.0894388  
C246     C      0.272690000000     0.869010000000     0.661670000000    -0.00274629 
C247     C      0.272690000000     0.651100000000     0.661760000000    -0.00275494 
C248     C      0.240590000000     0.651480000000     0.661750000000    -0.0893938  
C249     C      0.208500000000     0.619010000000     0.661730000000    -0.00263722 
C250     C      0.208500000000     0.586920000000     0.661750000000    -0.00276767 
C251     C      0.240600000000     0.586550000000     0.661740000000    -0.0892807  
C252     C      0.272690000000     0.619020000000     0.661740000000    -0.00274563 
C253     C      0.459370000000     0.869090000000     0.661650000000    -0.00270302 
C254     C      0.491470000000     0.901560000000     0.661650000000    -0.0895052  
C255     C      0.023560000000     0.901180000000     0.661670000000     0.00713527 
C256     C      0.023550000000     0.869080000000     0.661660000000     0.00716806 
C257     C      0.491460000000     0.836620000000     0.661690000000    -0.0894287  
C258     C      0.459370000000     0.837000000000     0.661690000000    -0.00273946 
C259     C      0.459370000000     0.586990000000     0.661770000000    -0.0027635  
C260     C      0.491470000000     0.586620000000     0.661760000000    -0.0894305  
C261     C      0.023560000000     0.619090000000     0.661740000000     0.00717809 
C262     C      0.023560000000     0.651180000000     0.661740000000     0.00710549 
C263     C      0.491460000000     0.651550000000     0.661720000000    -0.0893875  
C264     C      0.459370000000     0.619080000000     0.661730000000    -0.00273478 
C265     C      0.268310000000     0.771950000000     0.849790000000    -0.00152966 
C266     C      0.240640000000     0.744010000000     0.871640000000    -0.0893312  
C267     C      0.212920000000     0.716090000000     0.849840000000    -0.00143972 
C268     C      0.212640000000     0.716330000000     0.806950000000    -0.00140828 
C269     C      0.240550000000     0.744030000000     0.785100000000    -0.0894481  
C270     C      0.268500000000     0.771730000000     0.806910000000    -0.0014808  
C271     C      0.268550000000     0.521980000000     0.849800000000    -0.00154343 
C272     C      0.240910000000     0.494050000000     0.871680000000    -0.0892318  
C273     C      0.213160000000     0.966120000000     0.849870000000    -0.00147159 
C274     C      0.212820000000     0.966360000000     0.806980000000    -0.00146464 
C275     C      0.240700000000     0.494060000000     0.785140000000    -0.0893034  
C276     C      0.268680000000     0.521760000000     0.806910000000    -0.00152238 
C277     C      0.365860000000     0.711920000000     0.994790000000    -0.00291158 
C278     C      0.398330000000     0.744010000000     0.994790000000    -0.0895555  
C279     C      0.397960000000     0.776110000000     0.994780000000    -0.00295018 
C280     C      0.365870000000     0.776110000000     0.994800000000    -0.00292005 
C281     C      0.333400000000     0.744020000000     0.994800000000    -0.0895575  
C282     C      0.333770000000     0.711920000000     0.994770000000    -0.00295386 
C283     C      0.083770000000     0.711920000000     0.995280000000    -0.00281999 
C284     C      0.083390000000     0.744010000000     0.995280000000    -0.0879056  
C285     C      0.115860000000     0.776110000000     0.995310000000    -0.00298707 
C286     C      0.147950000000     0.776110000000     0.995290000000    -0.00236868 
C287     C      0.148330000000     0.744020000000     0.995280000000    -0.0895906  
C288     C      0.115860000000     0.711920000000     0.995300000000    -0.00207882 
C289     C      0.463510000000     0.716120000000     0.849760000000    -0.00162543 
C290     C      0.491150000000     0.744050000000     0.871640000000    -0.0892243  
C291     C      0.018910000000     0.771980000000     0.849870000000     0.00825508 
C292     C      0.019240000000     0.771740000000     0.806980000000     0.00847886 
C293     C      0.991360000000     0.744040000000     0.785100000000    -0.0985056  
C294     C      0.463390000000     0.716350000000     0.806870000000    -0.00142875 
C295     C      0.398280000000     0.526170000000     0.994820000000    -0.00296582 
C296     C      0.398660000000     0.494070000000     0.994850000000    -0.0895556  
C297     C      0.366190000000     0.961980000000     0.994790000000    -0.00295753 
C298     C      0.334100000000     0.961980000000     0.994780000000    -0.00290731 
C299     C      0.333720000000     0.494080000000     0.994840000000    -0.0896578  
C300     C      0.366190000000     0.526170000000     0.994840000000    -0.00288319 
C301     C      0.084110000000     0.961980000000     0.995260000000    -0.00279769 
C302     C      0.083720000000     0.494070000000     0.995310000000    -0.087907   
C303     C      0.116190000000     0.526170000000     0.995330000000    -0.00298081 
C304     C      0.148280000000     0.526170000000     0.995310000000    -0.002368   
C305     C      0.148660000000     0.494080000000     0.995310000000    -0.0895875  
C306     C      0.116190000000     0.961980000000     0.995280000000    -0.00211367 
C307     C      0.519130000000     0.522010000000     0.849880000000    -0.0015419  
C308     C      0.491410000000     0.494090000000     0.871680000000    -0.0892664  
C309     C      0.963740000000     0.966150000000     0.849760000000    -0.00147439 
C310     C      0.963560000000     0.966370000000     0.806880000000    -0.00129834 
C311     C      0.491500000000     0.494080000000     0.785150000000    -0.0894408  
C312     C      0.519410000000     0.521780000000     0.807000000000    -0.00151171 
C313     C      0.268490000000     0.743760000000     0.473670000000    -0.00146847 
C314     C      0.240830000000     0.744000000000     0.451770000000    -0.0895089  
C315     C      0.213090000000     0.744220000000     0.473530000000    -0.00142157 
C316     C      0.212800000000     0.743750000000     0.516410000000    -0.00142896 
C317     C      0.240690000000     0.743980000000     0.538310000000    -0.0893887  
C318     C      0.268650000000     0.744210000000     0.516550000000    -0.00154693 
C319     C      0.240900000000     0.771780000000     0.183150000000    -0.00116667 
C320     C      0.241140000000     0.744090000000     0.204970000000    -0.0892243  
C321     C      0.241360000000     0.716380000000     0.183150000000    -0.00121646 
C322     C      0.240870000000     0.716140000000     0.140260000000    -0.00148129 
C323     C      0.241070000000     0.744060000000     0.118440000000    -0.0885684  
C324     C      0.241330000000     0.772000000000     0.140270000000    -0.00146449 
C325     C      0.213000000000     0.994180000000     0.473530000000    -0.0014564  
C326     C      0.240730000000     0.493960000000     0.451810000000    -0.0894003  
C327     C      0.268400000000     0.493720000000     0.473700000000    -0.00156969 
C328     C      0.268560000000     0.494180000000     0.516580000000    -0.00145098 
C329     C      0.240610000000     0.493960000000     0.538340000000    -0.0894015  
C330     C      0.212710000000     0.993720000000     0.516410000000    -0.00148505 
C331     C      0.241070000000     0.521830000000     0.183170000000    -0.00120429 
C332     C      0.241270000000     0.494120000000     0.205010000000    -0.0893182  
C333     C      0.241540000000     0.966430000000     0.183170000000    -0.00129236 
C334     C      0.241110000000     0.966210000000     0.140280000000    -0.00135994 
C335     C      0.241350000000     0.494130000000     0.118470000000    -0.0886366  
C336     C      0.241570000000     0.522060000000     0.140280000000    -0.00140646 
C337     C      0.019040000000     0.743910000000     0.473520000000     0.00833778 
C338     C      0.491300000000     0.744130000000     0.451770000000    -0.0893904  
C339     C      0.463640000000     0.744370000000     0.473660000000    -0.00162699 
C340     C      0.463480000000     0.743910000000     0.516550000000    -0.00137198 
C341     C      0.991430000000     0.744130000000     0.538310000000    -0.0986503  
C342     C      0.019330000000     0.744370000000     0.516410000000     0.00849971 
C343     C      0.398100000000     0.619030000000     0.328620000000    -0.00276019 
C344     C      0.398490000000     0.651500000000     0.328590000000    -0.0893125  
C345     C      0.366020000000     0.651130000000     0.328600000000    -0.00278248 
C346     C      0.333930000000     0.619050000000     0.328620000000    -0.00266848 
C347     C      0.333540000000     0.586570000000     0.328610000000    -0.0895062  
C348     C      0.366010000000     0.586950000000     0.328610000000    -0.00265985 
C349     C      0.083920000000     0.869040000000     0.328160000000    -0.00265433 
C350     C      0.083550000000     0.836570000000     0.328160000000    -0.0876785  
C351     C      0.116020000000     0.836950000000     0.328140000000    -0.00276608 
C352     C      0.148110000000     0.869040000000     0.328160000000    -0.00223101 
C353     C      0.148480000000     0.901510000000     0.328160000000    -0.0893816  
C354     C      0.116010000000     0.901130000000     0.328140000000    -0.00187885 
C355     C      0.490500000000     0.771650000000     0.183160000000    -0.00126485 
C356     C      0.490750000000     0.743950000000     0.204970000000    -0.0894052  
C357     C      0.990950000000     0.716250000000     0.183130000000    -0.00359761 
C358     C      0.990460000000     0.716020000000     0.140240000000    -0.0034437  
C359     C      0.490690000000     0.743950000000     0.118430000000    -0.0887117  
C360     C      0.490920000000     0.771880000000     0.140280000000    -0.00167765 
C361     C      0.018980000000     0.993880000000     0.473500000000     0.00838536 
C362     C      0.491250000000     0.994100000000     0.451740000000    -0.0893344  
C363     C      0.463590000000     0.494340000000     0.473710000000    -0.00155137 
C364     C      0.463430000000     0.493890000000     0.516590000000    -0.00144685 
C365     C      0.491380000000     0.994120000000     0.538270000000    -0.0892725  
C366     C      0.019280000000     0.994350000000     0.516380000000     0.00820734 
C367     C      0.366050000000     0.901150000000     0.328460000000    -0.00280524 
C368     C      0.398520000000     0.901510000000     0.328460000000    -0.089339   
C369     C      0.398130000000     0.869030000000     0.328480000000    -0.00278678 
C370     C      0.366030000000     0.836950000000     0.328470000000    -0.00267634 
C371     C      0.333560000000     0.836580000000     0.328480000000    -0.089436   
C372     C      0.333950000000     0.869060000000     0.328490000000    -0.00270489 
C373     C      0.083950000000     0.619040000000     0.328290000000    -0.00256585 
C374     C      0.083580000000     0.586570000000     0.328290000000    -0.0878418  
C375     C      0.116050000000     0.586960000000     0.328270000000    -0.00267456 
C376     C      0.148140000000     0.619060000000     0.328280000000    -0.00223064 
C377     C      0.148500000000     0.651520000000     0.328270000000    -0.0893411  
C378     C      0.116030000000     0.651130000000     0.328260000000    -0.00188468 
C379     C      0.990710000000     0.521700000000     0.183190000000    -0.0031085  
C380     C      0.990930000000     0.494000000000     0.205020000000    -0.0871519  
C381     C      0.491180000000     0.966310000000     0.183120000000    -0.00126315 
C382     C      0.490750000000     0.966090000000     0.140230000000    -0.00163027 
C383     C      0.990990000000     0.494030000000     0.118480000000    -0.086439   
C384     C      0.991200000000     0.521950000000     0.140310000000    -0.00397946 
C385     C      0.490960000000     0.994010000000     0.250230000000     0.378538   
C386     C      0.491180000000     0.494080000000     0.406530000000     0.378803   
C387     C      0.549560000000     0.052550000000     0.328260000000     0.378629   
C388     C      0.932550000000     0.435530000000     0.328500000000     0.379497   
C389     C      0.932510000000     0.185530000000     0.328540000000     0.379459   
C390     C      0.549530000000     0.302550000000     0.328230000000     0.378282   
C391     C      0.991200000000     0.244100000000     0.406490000000     0.367949   
C392     C      0.990840000000     0.243980000000     0.250270000000     0.364914   
C393     C      0.799520000000     0.052550000000     0.328530000000     0.378641   
C394     C      0.682500000000     0.435530000000     0.328260000000     0.378623   
C395     C      0.741190000000     0.994100000000     0.250260000000     0.378488   
C396     C      0.740820000000     0.993980000000     0.406480000000     0.37869    
C397     C      0.682520000000     0.185540000000     0.328290000000     0.378365   
C398     C      0.799540000000     0.302560000000     0.328490000000     0.378673   
C399     C      0.741130000000     0.244090000000     0.250280000000     0.379177   
C400     C      0.740900000000     0.244010000000     0.406500000000     0.379114   
C401     C      0.549710000000     0.994070000000     0.995180000000     0.377541   
C402     C      0.932680000000     0.994070000000     0.994840000000     0.378402   
C403     C      0.991340000000     0.994090000000     0.916900000000     0.367217   
C404     C      0.991060000000     0.994050000000     0.073120000000     0.364115   
C405     C      0.549390000000     0.244010000000     0.995240000000     0.378419   
C406     C      0.932370000000     0.244010000000     0.994870000000     0.378763   
C407     C      0.990730000000     0.243980000000     0.073160000000     0.364372   
C408     C      0.991060000000     0.244040000000     0.916940000000     0.367526   
C409     C      0.799700000000     0.994080000000     0.994870000000     0.377945   
C410     C      0.682690000000     0.994080000000     0.995210000000     0.377995   
C411     C      0.741030000000     0.994050000000     0.916930000000     0.378356   
C412     C      0.741330000000     0.994110000000     0.073150000000     0.378039   
C413     C      0.682370000000     0.244020000000     0.995240000000     0.378229   
C414     C      0.799390000000     0.244020000000     0.994880000000     0.378283   
C415     C      0.740730000000     0.244010000000     0.916950000000     0.378627   
C416     C      0.741030000000     0.244040000000     0.073170000000     0.37845    
C417     C      0.991500000000     0.994080000000     0.739780000000     0.367877   
C418     C      0.991420000000     0.494100000000     0.583640000000     0.368172   
C419     C      0.991470000000     0.052600000000     0.661700000000     0.367817   
C420     C      0.991470000000     0.435580000000     0.661720000000     0.367507   
C421     C      0.491460000000     0.185570000000     0.661700000000     0.37863    
C422     C      0.491460000000     0.302600000000     0.661730000000     0.378304   
C423     C      0.491420000000     0.244050000000     0.739830000000     0.37874    
C424     C      0.491460000000     0.244110000000     0.583610000000     0.379079   
C425     C      0.740600000000     0.052530000000     0.661710000000     0.37832    
C426     C      0.740600000000     0.435510000000     0.661750000000     0.378637   
C427     C      0.740650000000     0.994040000000     0.739820000000     0.37845    
C428     C      0.740590000000     0.994000000000     0.583600000000     0.378709   
C429     C      0.740590000000     0.185500000000     0.661750000000     0.3784     
C430     C      0.740590000000     0.302520000000     0.661700000000     0.378422   
C431     C      0.740640000000     0.244000000000     0.583620000000     0.379076   
C432     C      0.740550000000     0.244010000000     0.739840000000     0.379032   
C433     C      0.772690000000     0.401100000000     0.661740000000    -0.0027756  
C434     C      0.740600000000     0.401480000000     0.661740000000    -0.0893296  
C435     C      0.708500000000     0.369010000000     0.661710000000    -0.00275946 
C436     C      0.708500000000     0.336920000000     0.661720000000    -0.00269896 
C437     C      0.740590000000     0.336540000000     0.661710000000    -0.0893976  
C438     C      0.772680000000     0.369010000000     0.661710000000    -0.00269998 
C439     C      0.772680000000     0.151100000000     0.661760000000    -0.00271828 
C440     C      0.740590000000     0.151480000000     0.661750000000    -0.0893258  
C441     C      0.708490000000     0.119010000000     0.661730000000    -0.00277848 
C442     C      0.708500000000     0.086920000000     0.661730000000    -0.00268974 
C443     C      0.740600000000     0.086550000000     0.661720000000    -0.0893117  
C444     C      0.772690000000     0.119020000000     0.661720000000    -0.00273606 
C445     C      0.959380000000     0.369090000000     0.661720000000    -0.00243018 
C446     C      0.991470000000     0.401560000000     0.661720000000    -0.0984552  
C447     C      0.523560000000     0.401180000000     0.661730000000    -0.00270758 
C448     C      0.523560000000     0.369090000000     0.661720000000    -0.00277403 
C449     C      0.991460000000     0.336620000000     0.661730000000    -0.09837    
C450     C      0.959370000000     0.337000000000     0.661750000000    -0.00251595 
C451     C      0.959380000000     0.087000000000     0.661720000000    -0.00243918 
C452     C      0.991470000000     0.086620000000     0.661700000000    -0.098442   
C453     C      0.523560000000     0.119090000000     0.661690000000    -0.00272485 
C454     C      0.523560000000     0.151180000000     0.661710000000    -0.00266568 
C455     C      0.991460000000     0.151560000000     0.661700000000    -0.098568   
C456     C      0.959370000000     0.119080000000     0.661690000000    -0.00240178 
C457     C      0.768320000000     0.271940000000     0.849810000000    -0.00156352 
C458     C      0.740660000000     0.244010000000     0.871660000000    -0.0893112  
C459     C      0.712930000000     0.216090000000     0.849860000000    -0.00153572 
C460     C      0.712650000000     0.216320000000     0.806970000000    -0.00151222 
C461     C      0.740560000000     0.244020000000     0.785130000000    -0.0894413  
C462     C      0.768500000000     0.271720000000     0.806930000000    -0.00151895 
C463     C      0.768550000000     0.021980000000     0.849760000000    -0.00123507 
C464     C      0.740910000000     0.994050000000     0.871640000000    -0.0895985  
C465     C      0.713150000000     0.466120000000     0.849910000000    -0.00161409 
C466     C      0.712820000000     0.466360000000     0.807020000000    -0.00147936 
C467     C      0.740710000000     0.994060000000     0.785100000000    -0.0896946  
C468     C      0.768680000000     0.021760000000     0.806880000000    -0.00123165 
C469     C      0.865880000000     0.211920000000     0.994800000000    -0.00268201 
C470     C      0.898350000000     0.244010000000     0.994800000000    -0.0904717  
C471     C      0.897980000000     0.276110000000     0.994790000000    -0.00274834 
C472     C      0.865890000000     0.276110000000     0.994810000000    -0.00336488 
C473     C      0.833420000000     0.244020000000     0.994810000000    -0.0894437  
C474     C      0.833790000000     0.211920000000     0.994780000000    -0.00316995 
C475     C      0.583790000000     0.211920000000     0.995300000000    -0.0028673  
C476     C      0.583410000000     0.244010000000     0.995300000000    -0.0896388  
C477     C      0.615880000000     0.276110000000     0.995330000000    -0.00288698 
C478     C      0.647970000000     0.276110000000     0.995310000000    -0.00287281 
C479     C      0.648350000000     0.244020000000     0.995300000000    -0.0896084  
C480     C      0.615880000000     0.211920000000     0.995320000000    -0.00289657 
C481     C      0.963530000000     0.216110000000     0.849770000000    -0.0014532  
C482     C      0.991170000000     0.244040000000     0.871650000000    -0.0984166  
C483     C      0.518930000000     0.271970000000     0.849880000000    -0.00162781 
C484     C      0.519250000000     0.271730000000     0.807000000000    -0.0014725  
C485     C      0.491370000000     0.244040000000     0.785120000000    -0.0893805  
C486     C      0.963400000000     0.216340000000     0.806890000000    -0.00134208 
C487     C      0.898290000000     0.026170000000     0.994760000000    -0.0024429  
C488     C      0.898660000000     0.994070000000     0.994790000000    -0.0907468  
C489     C      0.866190000000     0.461980000000     0.994850000000    -0.00268589 
C490     C      0.834100000000     0.461980000000     0.994830000000    -0.0031519  
C491     C      0.833730000000     0.994080000000     0.994800000000    -0.0897218  
C492     C      0.866200000000     0.026170000000     0.994790000000    -0.0030495  
C493     C      0.584100000000     0.461980000000     0.995320000000    -0.0029095  
C494     C      0.583730000000     0.994070000000     0.995250000000    -0.0898014  
C495     C      0.616200000000     0.026170000000     0.995270000000    -0.00260713 
C496     C      0.648280000000     0.026170000000     0.995260000000    -0.00257448 
C497     C      0.648660000000     0.994080000000     0.995260000000    -0.0898039  
C498     C      0.616190000000     0.461980000000     0.995330000000    -0.00290783 
C499     C      0.019130000000     0.022010000000     0.849810000000     0.00861362 
C500     C      0.991410000000     0.994090000000     0.871610000000    -0.0986586  
C501     C      0.463740000000     0.466150000000     0.849830000000    -0.00160218 
C502     C      0.463550000000     0.466380000000     0.806950000000    -0.00148294 
C503     C      0.991500000000     0.994070000000     0.785070000000    -0.0987819  
C504     C      0.019410000000     0.021770000000     0.806920000000     0.00871016 
C505     C      0.768480000000     0.243750000000     0.473690000000    -0.00151752 
C506     C      0.740820000000     0.243980000000     0.451790000000    -0.0894681  
C507     C      0.713080000000     0.244210000000     0.473540000000    -0.00152247 
C508     C      0.712780000000     0.243740000000     0.516430000000    -0.00152027 
C509     C      0.740680000000     0.243980000000     0.538330000000    -0.0894317  
C510     C      0.768640000000     0.244200000000     0.516570000000    -0.00158123 
C511     C      0.740920000000     0.271790000000     0.183170000000    -0.00122653 
C512     C      0.741160000000     0.244100000000     0.205000000000    -0.0895468  
C513     C      0.741380000000     0.216390000000     0.183170000000    -0.0013105  
C514     C      0.740890000000     0.216150000000     0.140280000000    -0.00153593 
C515     C      0.741100000000     0.244060000000     0.118460000000    -0.0887324  
C516     C      0.741350000000     0.272000000000     0.140280000000    -0.0016221  
C517     C      0.713000000000     0.494180000000     0.473560000000    -0.00149547 
C518     C      0.740730000000     0.993960000000     0.451770000000    -0.0894326  
C519     C      0.768390000000     0.993720000000     0.473660000000    -0.00156911 
C520     C      0.768560000000     0.994180000000     0.516550000000    -0.00159631 
C521     C      0.740610000000     0.993960000000     0.538310000000    -0.0894163  
C522     C      0.712710000000     0.493720000000     0.516450000000    -0.00151066 
C523     C      0.741080000000     0.021830000000     0.183130000000    -0.00099076 
C524     C      0.741270000000     0.994130000000     0.204970000000    -0.0896236  
C525     C      0.741530000000     0.466430000000     0.183200000000    -0.00124582 
C526     C      0.741110000000     0.466200000000     0.140320000000    -0.00163266 
C527     C      0.741360000000     0.994130000000     0.118440000000    -0.0890452  
C528     C      0.741570000000     0.022060000000     0.140250000000    -0.0012663  
C529     C      0.519030000000     0.243910000000     0.473540000000    -0.00151533 
C530     C      0.991300000000     0.244130000000     0.451780000000    -0.0985848  
C531     C      0.963640000000     0.244380000000     0.473680000000    -0.00145795 
C532     C      0.963480000000     0.243920000000     0.516560000000    -0.00125729 
C533     C      0.491430000000     0.244150000000     0.538320000000    -0.0894878  
C534     C      0.519330000000     0.244380000000     0.516420000000    -0.00149664 
C535     C      0.898100000000     0.119030000000     0.328610000000    -0.0025806  
C536     C      0.898480000000     0.151510000000     0.328590000000    -0.0903139  
C537     C      0.866010000000     0.151130000000     0.328580000000    -0.00242798 
C538     C      0.833920000000     0.119050000000     0.328600000000    -0.00298624 
C539     C      0.833540000000     0.086570000000     0.328580000000    -0.0893008  
C540     C      0.866010000000     0.086950000000     0.328590000000    -0.00309733 
C541     C      0.583920000000     0.369040000000     0.328190000000    -0.00273423 
C542     C      0.583550000000     0.336570000000     0.328190000000    -0.0892745  
C543     C      0.616020000000     0.336950000000     0.328170000000    -0.00275361 
C544     C      0.648110000000     0.369040000000     0.328200000000    -0.00269627 
C545     C      0.648480000000     0.401510000000     0.328200000000    -0.0893863  
C546     C      0.616000000000     0.401130000000     0.328170000000    -0.00268966 
C547     C      0.990510000000     0.271650000000     0.183180000000    -0.00312063 
C548     C      0.990760000000     0.243960000000     0.204990000000    -0.0872006  
C549     C      0.490970000000     0.216250000000     0.183140000000    -0.0012928  
C550     C      0.490480000000     0.216020000000     0.140260000000    -0.00163588 
C551     C      0.990700000000     0.243960000000     0.118450000000    -0.0864397  
C552     C      0.990940000000     0.271880000000     0.140290000000    -0.00393285 
C553     C      0.518990000000     0.493890000000     0.473570000000    -0.00155955 
C554     C      0.991250000000     0.494110000000     0.451810000000    -0.0985778  
C555     C      0.963590000000     0.994350000000     0.473630000000    -0.00149758 
C556     C      0.963420000000     0.993890000000     0.516520000000    -0.00145524 
C557     C      0.991380000000     0.494120000000     0.538350000000    -0.0985725  
C558     C      0.519280000000     0.494350000000     0.516460000000    -0.00147922 
C559     C      0.866050000000     0.401140000000     0.328530000000    -0.00252034 
C560     C      0.898520000000     0.401510000000     0.328540000000    -0.0903115  
C561     C      0.898130000000     0.369030000000     0.328550000000    -0.00257877 
C562     C      0.866030000000     0.336950000000     0.328530000000    -0.00309657 
C563     C      0.833570000000     0.336580000000     0.328530000000    -0.0893498  
C564     C      0.833960000000     0.369060000000     0.328550000000    -0.00289465 
C565     C      0.583950000000     0.119040000000     0.328240000000    -0.00269471 
C566     C      0.583580000000     0.086570000000     0.328230000000    -0.0893677  
C567     C      0.616060000000     0.086960000000     0.328220000000    -0.00265282 
C568     C      0.648140000000     0.119050000000     0.328250000000    -0.00275136 
C569     C      0.648500000000     0.151520000000     0.328250000000    -0.0892851  
C570     C      0.616030000000     0.151130000000     0.328230000000    -0.00270386 
C571     C      0.490720000000     0.021710000000     0.183120000000    -0.00100208 
C572     C      0.490940000000     0.994000000000     0.204940000000    -0.0896738  
C573     C      0.991170000000     0.466300000000     0.183190000000    -0.00365792 
C574     C      0.990740000000     0.466090000000     0.140310000000    -0.00344692 
C575     C      0.491000000000     0.994030000000     0.118410000000    -0.0889532  
C576     C      0.491200000000     0.021950000000     0.140230000000    -0.00132099 
C577     C      0.490960000000     0.494000000000     0.250310000000     0.378961   
C578     C      0.491170000000     0.994070000000     0.406450000000     0.378443   
C579     C      0.549560000000     0.552550000000     0.328320000000     0.378645   
C580     C      0.932540000000     0.935530000000     0.328430000000     0.379152   
C581     C      0.932510000000     0.685530000000     0.328530000000     0.379135   
C582     C      0.549530000000     0.802550000000     0.328210000000     0.378562   
C583     C      0.991210000000     0.744100000000     0.406480000000     0.367915   
C584     C      0.990840000000     0.743980000000     0.250260000000     0.364856   
C585     C      0.799520000000     0.552550000000     0.328560000000     0.378668   
C586     C      0.682500000000     0.935530000000     0.328220000000     0.378646   
C587     C      0.741180000000     0.494100000000     0.250300000000     0.379167   
C588     C      0.740820000000     0.493980000000     0.406520000000     0.379094   
C589     C      0.682520000000     0.685550000000     0.328290000000     0.378716   
C590     C      0.799540000000     0.802570000000     0.328450000000     0.378371   
C591     C      0.741110000000     0.744080000000     0.250260000000     0.378848   
C592     C      0.740910000000     0.744030000000     0.406480000000     0.379374   
C593     C      0.549700000000     0.494070000000     0.995250000000     0.377997   
C594     C      0.932680000000     0.494070000000     0.994910000000     0.378847   
C595     C      0.991330000000     0.494090000000     0.916970000000     0.367463   
C596     C      0.991050000000     0.494050000000     0.073190000000     0.3644     
C597     C      0.549370000000     0.744010000000     0.995220000000     0.378086   
C598     C      0.932350000000     0.744010000000     0.994860000000     0.378757   
C599     C      0.990720000000     0.743980000000     0.073150000000     0.364406   
C600     C      0.991040000000     0.744040000000     0.916930000000     0.367509   
C601     C      0.799700000000     0.494080000000     0.994900000000     0.378265   
C602     C      0.682680000000     0.494080000000     0.995250000000     0.378323   
C603     C      0.741020000000     0.494050000000     0.916970000000     0.37873    
C604     C      0.741330000000     0.494110000000     0.073190000000     0.378416   
C605     C      0.682350000000     0.744020000000     0.995220000000     0.378251   
C606     C      0.799370000000     0.744020000000     0.994860000000     0.378282   
C607     C      0.740710000000     0.744010000000     0.916930000000     0.378863   
C608     C      0.741010000000     0.744040000000     0.073150000000     0.378449   
C609     C      0.991500000000     0.494090000000     0.739860000000     0.368108   
C610     C      0.991420000000     0.994100000000     0.583560000000     0.367484   
C611     C      0.991470000000     0.552600000000     0.661770000000     0.367683   
C612     C      0.991470000000     0.935580000000     0.661650000000     0.367864   
C613     C      0.491450000000     0.685570000000     0.661710000000     0.37859    
C614     C      0.491450000000     0.802590000000     0.661700000000     0.378683   
C615     C      0.491410000000     0.744060000000     0.739810000000     0.378938   
C616     C      0.491460000000     0.744100000000     0.583590000000     0.379093   
C617     C      0.740600000000     0.552530000000     0.661740000000     0.378328   
C618     C      0.740600000000     0.935510000000     0.661710000000     0.378527   
C619     C      0.740650000000     0.494040000000     0.739850000000     0.378913   
C620     C      0.740590000000     0.493990000000     0.583630000000     0.379011   
C621     C      0.740590000000     0.685500000000     0.661740000000     0.378619   
C622     C      0.740590000000     0.802520000000     0.661670000000     0.378811   
C623     C      0.740650000000     0.744000000000     0.583600000000     0.379148   
C624     C      0.740550000000     0.744020000000     0.739820000000     0.379113   
C625     C      0.772690000000     0.901100000000     0.661700000000    -0.0027653  
C626     C      0.740600000000     0.901490000000     0.661690000000    -0.0893555  
C627     C      0.708500000000     0.869010000000     0.661670000000    -0.00280139 
C628     C      0.708500000000     0.836930000000     0.661680000000    -0.00262927 
C629     C      0.740590000000     0.836540000000     0.661670000000    -0.0895216  
C630     C      0.772690000000     0.869010000000     0.661670000000    -0.00267651 
C631     C      0.772690000000     0.651100000000     0.661760000000    -0.00273939 
C632     C      0.740590000000     0.651480000000     0.661750000000    -0.0894433  
C633     C      0.708500000000     0.619010000000     0.661730000000    -0.00266089 
C634     C      0.708500000000     0.586920000000     0.661750000000    -0.00279716 
C635     C      0.740600000000     0.586550000000     0.661740000000    -0.0893185  
C636     C      0.772690000000     0.619020000000     0.661740000000    -0.00273751 
C637     C      0.959370000000     0.869090000000     0.661650000000    -0.00248593 
C638     C      0.991470000000     0.901560000000     0.661650000000    -0.0985119  
C639     C      0.523560000000     0.901180000000     0.661670000000    -0.00270489 
C640     C      0.523550000000     0.869080000000     0.661660000000    -0.00271073 
C641     C      0.991460000000     0.836620000000     0.661690000000    -0.0984807  
C642     C      0.959370000000     0.837000000000     0.661690000000    -0.00244128 
C643     C      0.959370000000     0.586990000000     0.661770000000    -0.00249258 
C644     C      0.991470000000     0.586620000000     0.661760000000    -0.0984801  
C645     C      0.523560000000     0.619090000000     0.661740000000    -0.00269961 
C646     C      0.523560000000     0.651180000000     0.661740000000    -0.00276258 
C647     C      0.991460000000     0.651550000000     0.661720000000    -0.0984338  
C648     C      0.959370000000     0.619080000000     0.661730000000    -0.00246462 
C649     C      0.768310000000     0.771950000000     0.849790000000    -0.00157199 
C650     C      0.740640000000     0.744010000000     0.871640000000    -0.0893807  
C651     C      0.712920000000     0.716090000000     0.849840000000    -0.00152742 
C652     C      0.712640000000     0.716330000000     0.806950000000    -0.00144673 
C653     C      0.740550000000     0.744030000000     0.785100000000    -0.0895447  
C654     C      0.768500000000     0.771730000000     0.806910000000    -0.00149472 
C655     C      0.768550000000     0.521980000000     0.849800000000    -0.00158252 
C656     C      0.740910000000     0.494050000000     0.871680000000    -0.089281   
C657     C      0.713160000000     0.966120000000     0.849870000000    -0.00154333 
C658     C      0.712820000000     0.966360000000     0.806980000000    -0.00153023 
C659     C      0.740700000000     0.494060000000     0.785140000000    -0.089381   
C660     C      0.768680000000     0.521760000000     0.806910000000    -0.00154371 
C661     C      0.865860000000     0.711920000000     0.994790000000    -0.0026709  
C662     C      0.898330000000     0.744010000000     0.994790000000    -0.0904701  
C663     C      0.897960000000     0.776110000000     0.994780000000    -0.00274582 
C664     C      0.865870000000     0.776110000000     0.994800000000    -0.00336373 
C665     C      0.833400000000     0.744020000000     0.994800000000    -0.0894428  
C666     C      0.833770000000     0.711920000000     0.994770000000    -0.00317243 
C667     C      0.583770000000     0.711920000000     0.995280000000    -0.00293151 
C668     C      0.583390000000     0.744010000000     0.995280000000    -0.0895021  
C669     C      0.615860000000     0.776110000000     0.995310000000    -0.0029532  
C670     C      0.647950000000     0.776110000000     0.995290000000    -0.00283407 
C671     C      0.648330000000     0.744020000000     0.995280000000    -0.0896363  
C672     C      0.615860000000     0.711920000000     0.995300000000    -0.00285935 
C673     C      0.963510000000     0.716120000000     0.849760000000    -0.0015052  
C674     C      0.991150000000     0.744050000000     0.871640000000    -0.0983602  
C675     C      0.518910000000     0.771980000000     0.849870000000    -0.00163375 
C676     C      0.519240000000     0.771740000000     0.806980000000    -0.00145979 
C677     C      0.491360000000     0.744040000000     0.785100000000    -0.0894355  
C678     C      0.963390000000     0.716350000000     0.806870000000    -0.00125749 
C679     C      0.898280000000     0.526170000000     0.994820000000    -0.00276217 
C680     C      0.898660000000     0.494070000000     0.994850000000    -0.0904749  
C681     C      0.866190000000     0.961980000000     0.994790000000    -0.00265514 
C682     C      0.834100000000     0.961980000000     0.994780000000    -0.00318787 
C683     C      0.833720000000     0.494080000000     0.994840000000    -0.0895448  
C684     C      0.866190000000     0.526170000000     0.994840000000    -0.00332836 
C685     C      0.584110000000     0.961980000000     0.995260000000    -0.00287771 
C686     C      0.583720000000     0.494070000000     0.995310000000    -0.0895047  
C687     C      0.616190000000     0.526170000000     0.995330000000    -0.0029451  
C688     C      0.648280000000     0.526170000000     0.995310000000    -0.00283694 
C689     C      0.648660000000     0.494080000000     0.995310000000    -0.0896242  
C690     C      0.616190000000     0.961980000000     0.995280000000    -0.00294454 
C691     C      0.019130000000     0.522010000000     0.849880000000     0.00838311 
C692     C      0.991410000000     0.494090000000     0.871680000000    -0.0984283  
C693     C      0.463740000000     0.966150000000     0.849760000000    -0.00159785 
C694     C      0.463560000000     0.966370000000     0.806880000000    -0.00145855 
C695     C      0.991500000000     0.494080000000     0.785150000000    -0.0985105  
C696     C      0.019410000000     0.521780000000     0.807000000000     0.00841205 
C697     C      0.768490000000     0.743760000000     0.473670000000    -0.00153094 
C698     C      0.740830000000     0.744000000000     0.451770000000    -0.0895521  
C699     C      0.713090000000     0.744220000000     0.473530000000    -0.00150729 
C700     C      0.712800000000     0.743750000000     0.516410000000    -0.00147773 
C701     C      0.740690000000     0.743980000000     0.538310000000    -0.0894964  
C702     C      0.768650000000     0.744210000000     0.516550000000    -0.00151806 
C703     C      0.740900000000     0.771780000000     0.183150000000    -0.0012978  
C704     C      0.741140000000     0.744090000000     0.204970000000    -0.0893682  
C705     C      0.741360000000     0.716380000000     0.183150000000    -0.00134147 
C706     C      0.740870000000     0.716140000000     0.140260000000    -0.00161222 
C707     C      0.741070000000     0.744060000000     0.118440000000    -0.0887132  
C708     C      0.741330000000     0.772000000000     0.140270000000    -0.00158883 
C709     C      0.713000000000     0.994180000000     0.473530000000    -0.00156578 
C710     C      0.740730000000     0.493960000000     0.451810000000    -0.0894573  
C711     C      0.768400000000     0.493720000000     0.473700000000    -0.00160413 
C712     C      0.768560000000     0.494180000000     0.516580000000    -0.00147647 
C713     C      0.740610000000     0.493960000000     0.538340000000    -0.0894736  
C714     C      0.712710000000     0.993720000000     0.516410000000    -0.00153504 
C715     C      0.741070000000     0.521830000000     0.183170000000    -0.00131298 
C716     C      0.741270000000     0.494120000000     0.205010000000    -0.0894721  
C717     C      0.741540000000     0.966430000000     0.183170000000    -0.00141561 
C718     C      0.741110000000     0.966210000000     0.140280000000    -0.00148962 
C719     C      0.741350000000     0.494130000000     0.118470000000    -0.0887749  
C720     C      0.741570000000     0.522060000000     0.140280000000    -0.0015443  
C721     C      0.519040000000     0.743910000000     0.473520000000    -0.00158898 
C722     C      0.991300000000     0.744130000000     0.451770000000    -0.0985517  
C723     C      0.963640000000     0.744370000000     0.473660000000    -0.00147849 
C724     C      0.963480000000     0.743910000000     0.516550000000    -0.00125493 
C725     C      0.491430000000     0.744130000000     0.538310000000    -0.0896048  
C726     C      0.519330000000     0.744370000000     0.516410000000    -0.00141437 
C727     C      0.898100000000     0.619030000000     0.328620000000    -0.00263517 
C728     C      0.898480000000     0.651500000000     0.328590000000    -0.0901282  
C729     C      0.866010000000     0.651130000000     0.328600000000    -0.00262193 
C730     C      0.833930000000     0.619050000000     0.328620000000    -0.00283752 
C731     C      0.833540000000     0.586570000000     0.328610000000    -0.0894245  
C732     C      0.866010000000     0.586950000000     0.328610000000    -0.00306251 
C733     C      0.583920000000     0.869040000000     0.328160000000    -0.00270918 
C734     C      0.583550000000     0.836570000000     0.328160000000    -0.0893865  
C735     C      0.616020000000     0.836950000000     0.328140000000    -0.00268006 
C736     C      0.648110000000     0.869040000000     0.328160000000    -0.00272306 
C737     C      0.648480000000     0.901510000000     0.328160000000    -0.0894071  
C738     C      0.616010000000     0.901130000000     0.328140000000    -0.00268594 
C739     C      0.990500000000     0.771650000000     0.183160000000    -0.00312987 
C740     C      0.990750000000     0.743950000000     0.204970000000    -0.0871421  
C741     C      0.490950000000     0.716250000000     0.183130000000    -0.00123005 
C742     C      0.490470000000     0.716020000000     0.140240000000    -0.00164278 
C743     C      0.990690000000     0.743950000000     0.118430000000    -0.0864926  
C744     C      0.990920000000     0.771880000000     0.140280000000    -0.00399648 
C745     C      0.518980000000     0.993880000000     0.473500000000    -0.0015304  
C746     C      0.991250000000     0.994100000000     0.451740000000    -0.0984733  
C747     C      0.963590000000     0.494340000000     0.473710000000    -0.00143253 
C748     C      0.963430000000     0.493890000000     0.516590000000    -0.00127783 
C749     C      0.991380000000     0.994120000000     0.538270000000    -0.0983057  
C750     C      0.519280000000     0.994350000000     0.516380000000    -0.00165125 
C751     C      0.866050000000     0.901150000000     0.328460000000    -0.002601   
C752     C      0.898520000000     0.901510000000     0.328460000000    -0.0902433  
C753     C      0.898130000000     0.869030000000     0.328480000000    -0.00259122 
C754     C      0.866030000000     0.836950000000     0.328470000000    -0.00311527 
C755     C      0.833560000000     0.836580000000     0.328480000000    -0.0893308  
C756     C      0.833950000000     0.869060000000     0.328490000000    -0.00290545 
C757     C      0.583940000000     0.619040000000     0.328290000000    -0.00275225 
C758     C      0.583580000000     0.586570000000     0.328290000000    -0.0894063  
C759     C      0.616050000000     0.586960000000     0.328270000000    -0.00263834 
C760     C      0.648140000000     0.619060000000     0.328280000000    -0.00272698 
C761     C      0.648500000000     0.651520000000     0.328270000000    -0.0893859  
C762     C      0.616030000000     0.651130000000     0.328260000000    -0.00262703 
C763     C      0.490710000000     0.521700000000     0.183190000000    -0.00125164 
C764     C      0.490930000000     0.494000000000     0.205020000000    -0.089402   
C765     C      0.991180000000     0.966310000000     0.183120000000    -0.00360967 
C766     C      0.990750000000     0.966090000000     0.140230000000    -0.00346161 
C767     C      0.490990000000     0.494030000000     0.118480000000    -0.0886815  
C768     C      0.491200000000     0.521950000000     0.140310000000    -0.00164262 
H1       H      0.297910000000     0.425600000000     0.661740000000     0.0438337  
H2       H      0.183280000000     0.368300000000     0.661720000000     0.0439994  
H3       H      0.183280000000     0.312420000000     0.661710000000     0.0439757  
H4       H      0.297900000000     0.369720000000     0.661710000000     0.0438107  
H5       H      0.297900000000     0.175610000000     0.661760000000     0.0438337  
H6       H      0.183280000000     0.118290000000     0.661730000000     0.0440066  
H7       H      0.183280000000     0.062410000000     0.661720000000     0.0440396  
H8       H      0.297910000000     0.119730000000     0.661720000000     0.0438433  
H9       H      0.434160000000     0.368380000000     0.661730000000     0.0438109  
H10      H      0.048780000000     0.425680000000     0.661720000000     0.0429631  
H11      H      0.048780000000     0.369800000000     0.661720000000     0.0429914  
H12      H      0.434150000000     0.312500000000     0.661750000000     0.0438434  
H13      H      0.434160000000     0.062490000000     0.661720000000     0.0438898  
H14      H      0.048780000000     0.119810000000     0.661690000000     0.0429912  
H15      H      0.048780000000     0.175690000000     0.661690000000     0.0429619  
H16      H      0.434150000000     0.118370000000     0.661700000000     0.0438212  
H17      H      0.290100000000     0.293730000000     0.865870000000     0.0433206  
H18      H      0.191190000000     0.194300000000     0.865960000000     0.0435902  
H19      H      0.190850000000     0.194570000000     0.790910000000     0.0436028  
H20      H      0.290270000000     0.293480000000     0.790840000000     0.0433223  
H21      H      0.290350000000     0.043770000000     0.865790000000     0.043302   
H22      H      0.191430000000     0.444340000000     0.866030000000     0.0436078  
H23      H      0.191000000000     0.444600000000     0.790980000000     0.0435869  
H24      H      0.290430000000     0.043510000000     0.790760000000     0.0433157  
H25      H      0.365160000000     0.186700000000     0.994800000000     0.0435585  
H26      H      0.422480000000     0.301330000000     0.994800000000     0.0435712  
H27      H      0.366600000000     0.301330000000     0.994820000000     0.043544   
H28      H      0.309290000000     0.186700000000     0.994790000000     0.0435812  
H29      H      0.059290000000     0.186700000000     0.995300000000     0.0455418  
H30      H      0.116590000000     0.301330000000     0.995320000000     0.0441126  
H31      H      0.172480000000     0.301330000000     0.995310000000     0.0436443  
H32      H      0.115170000000     0.186700000000     0.995310000000     0.0441527  
H33      H      0.441740000000     0.194330000000     0.865810000000     0.0433407  
H34      H      0.040650000000     0.293760000000     0.866000000000     0.0427157  
H35      H      0.041070000000     0.293490000000     0.790960000000     0.04281    
H36      H      0.441650000000     0.194580000000     0.790770000000     0.0433257  
H37      H      0.422790000000     0.051390000000     0.994770000000     0.0435584  
H38      H      0.365470000000     0.436760000000     0.994850000000     0.0435691  
H39      H      0.309590000000     0.436770000000     0.994840000000     0.0435842  
H40      H      0.366910000000     0.051390000000     0.994790000000     0.0434949  
H41      H      0.059600000000     0.436760000000     0.995320000000     0.0455492  
H42      H      0.116910000000     0.051390000000     0.995250000000     0.0440868  
H43      H      0.172790000000     0.051390000000     0.995260000000     0.0436199  
H44      H      0.115480000000     0.436770000000     0.995330000000     0.0441724  
H45      H      0.540870000000     0.043800000000     0.865910000000     0.0433198  
H46      H      0.941960000000     0.444370000000     0.865890000000     0.0427518  
H47      H      0.941780000000     0.444620000000     0.790860000000     0.0427573  
H48      H      0.541210000000     0.043530000000     0.790860000000     0.0433042  
H49      H      0.290260000000     0.243720000000     0.457670000000     0.0433187  
H50      H      0.191350000000     0.244240000000     0.457410000000     0.0436086  
H51      H      0.190980000000     0.243720000000     0.532450000000     0.043583   
H52      H      0.290400000000     0.244230000000     0.532710000000     0.0433225  
H53      H      0.240900000000     0.293550000000     0.199250000000     0.0435627  
H54      H      0.241410000000     0.194640000000     0.199250000000     0.0435888  
H55      H      0.240850000000     0.194350000000     0.124200000000     0.0439248  
H56      H      0.241360000000     0.293780000000     0.124210000000     0.0439653  
H57      H      0.191270000000     0.494220000000     0.457430000000     0.0435685  
H58      H      0.290170000000     0.993690000000     0.457640000000     0.0432718  
H59      H      0.290330000000     0.994210000000     0.532680000000     0.0432554  
H60      H      0.190910000000     0.493700000000     0.532480000000     0.0435699  
H61      H      0.241030000000     0.043580000000     0.199190000000     0.0435753  
H62      H      0.241540000000     0.444670000000     0.199300000000     0.0435749  
H63      H      0.241090000000     0.444420000000     0.124250000000     0.0439448  
H64      H      0.241610000000     0.043850000000     0.124150000000     0.0439277  
H65      H      0.040760000000     0.243880000000     0.457400000000     0.0426968  
H66      H      0.441850000000     0.244400000000     0.457660000000     0.0433246  
H67      H      0.441710000000     0.243900000000     0.532690000000     0.0432951  
H68      H      0.041140000000     0.244400000000     0.532450000000     0.0427831  
H69      H      0.422600000000     0.118320000000     0.328600000000     0.0438788  
H70      H      0.365300000000     0.175640000000     0.328580000000     0.0438319  
H71      H      0.309420000000     0.119760000000     0.328590000000     0.0438949  
H72      H      0.366720000000     0.062440000000     0.328590000000     0.0438712  
H73      H      0.059410000000     0.369750000000     0.328180000000     0.0458575  
H74      H      0.116730000000     0.312450000000     0.328180000000     0.0444166  
H75      H      0.172610000000     0.368330000000     0.328200000000     0.0439084  
H76      H      0.115290000000     0.425640000000     0.328180000000     0.0443955  
H77      H      0.490500000000     0.293410000000     0.199270000000     0.0434256  
H78      H      0.991010000000     0.194500000000     0.199210000000     0.0414385  
H79      H      0.990450000000     0.194240000000     0.124170000000     0.0424335  
H80      H      0.490960000000     0.293670000000     0.124220000000     0.0437713  
H81      H      0.040720000000     0.493850000000     0.457440000000     0.0427127  
H82      H      0.441810000000     0.994370000000     0.457610000000     0.0432453  
H83      H      0.441660000000     0.993870000000     0.532640000000     0.0432732  
H84      H      0.041090000000     0.494380000000     0.532490000000     0.0427893  
H85      H      0.365340000000     0.425650000000     0.328530000000     0.0438295  
H86      H      0.422630000000     0.368310000000     0.328550000000     0.0438375  
H87      H      0.366740000000     0.312440000000     0.328540000000     0.0438176  
H88      H      0.309450000000     0.369780000000     0.328540000000     0.0438437  
H89      H      0.059440000000     0.119740000000     0.328230000000     0.0458412  
H90      H      0.116780000000     0.062460000000     0.328230000000     0.0444301  
H91      H      0.172650000000     0.118350000000     0.328260000000     0.0439727  
H92      H      0.115310000000     0.175630000000     0.328230000000     0.0444377  
H93      H      0.990690000000     0.043460000000     0.199200000000     0.042034   
H94      H      0.491190000000     0.444540000000     0.199270000000     0.043442   
H95      H      0.490730000000     0.444310000000     0.124230000000     0.0437979  
H96      H      0.991250000000     0.043740000000     0.124150000000     0.0417606  
H97      H      0.297910000000     0.925610000000     0.661710000000     0.0438015  
H98      H      0.183290000000     0.868310000000     0.661680000000     0.0440208  
H99      H      0.183280000000     0.812420000000     0.661670000000     0.0439633  
H100     H      0.297900000000     0.869720000000     0.661680000000     0.0438195  
H101     H      0.297900000000     0.675610000000     0.661760000000     0.0438353  
H102     H      0.183280000000     0.618290000000     0.661730000000     0.0439813  
H103     H      0.183290000000     0.562420000000     0.661740000000     0.0440064  
H104     H      0.297910000000     0.619730000000     0.661750000000     0.0438253  
H105     H      0.434150000000     0.868380000000     0.661660000000     0.0438078  
H106     H      0.048780000000     0.925680000000     0.661650000000     0.0429267  
H107     H      0.048770000000     0.869790000000     0.661670000000     0.0429645  
H108     H      0.434150000000     0.812490000000     0.661690000000     0.0438293  
H109     H      0.434160000000     0.562490000000     0.661770000000     0.0438393  
H110     H      0.048780000000     0.619810000000     0.661750000000     0.042972   
H111     H      0.048770000000     0.675690000000     0.661720000000     0.0429828  
H112     H      0.434150000000     0.618360000000     0.661730000000     0.0438137  
H113     H      0.290090000000     0.793730000000     0.865860000000     0.0433171  
H114     H      0.191180000000     0.694300000000     0.865940000000     0.0435829  
H115     H      0.190850000000     0.694570000000     0.790880000000     0.0435896  
H116     H      0.290270000000     0.793490000000     0.790820000000     0.0433105  
H117     H      0.290340000000     0.543770000000     0.865830000000     0.0433292  
H118     H      0.191440000000     0.944340000000     0.865990000000     0.0435777  
H119     H      0.191010000000     0.944600000000     0.790950000000     0.043587   
H120     H      0.290430000000     0.543520000000     0.790800000000     0.0433379  
H121     H      0.365150000000     0.686700000000     0.994780000000     0.0435525  
H122     H      0.422460000000     0.801330000000     0.994790000000     0.0435641  
H123     H      0.366580000000     0.801330000000     0.994800000000     0.0435564  
H124     H      0.309270000000     0.686700000000     0.994780000000     0.0435911  
H125     H      0.059270000000     0.686700000000     0.995270000000     0.0455679  
H126     H      0.116580000000     0.801330000000     0.995300000000     0.0441337  
H127     H      0.172460000000     0.801330000000     0.995290000000     0.0436346  
H128     H      0.115150000000     0.686700000000     0.995280000000     0.0441428  
H129     H      0.441720000000     0.694330000000     0.865790000000     0.0433477  
H130     H      0.040620000000     0.793760000000     0.865990000000     0.042738   
H131     H      0.041060000000     0.793500000000     0.790940000000     0.0427918  
H132     H      0.441630000000     0.694590000000     0.790750000000     0.0433019  
H133     H      0.422790000000     0.551390000000     0.994830000000     0.0435749  
H134     H      0.365480000000     0.936760000000     0.994790000000     0.0435684  
H135     H      0.309600000000     0.936770000000     0.994790000000     0.0435696  
H136     H      0.366910000000     0.551390000000     0.994840000000     0.0435371  
H137     H      0.059600000000     0.936760000000     0.995260000000     0.04553    
H138     H      0.116900000000     0.551390000000     0.995320000000     0.0441166  
H139     H      0.172790000000     0.551390000000     0.995310000000     0.0436509  
H140     H      0.115480000000     0.936770000000     0.995280000000     0.0441598  
H141     H      0.540870000000     0.543800000000     0.865980000000     0.0433367  
H142     H      0.941960000000     0.944370000000     0.865820000000     0.0427477  
H143     H      0.941780000000     0.944620000000     0.790780000000     0.0427344  
H144     H      0.541210000000     0.543530000000     0.790930000000     0.0433331  
H145     H      0.290270000000     0.743730000000     0.457650000000     0.0432863  
H146     H      0.191360000000     0.744250000000     0.457390000000     0.0435835  
H147     H      0.190990000000     0.743720000000     0.532430000000     0.0435788  
H148     H      0.290410000000     0.744240000000     0.532690000000     0.0433226  
H149     H      0.240880000000     0.793540000000     0.199230000000     0.0435965  
H150     H      0.241390000000     0.694630000000     0.199230000000     0.0435924  
H151     H      0.240820000000     0.694350000000     0.124180000000     0.0439482  
H152     H      0.241340000000     0.793780000000     0.124190000000     0.0439498  
H153     H      0.191260000000     0.994220000000     0.457390000000     0.0434845  
H154     H      0.290180000000     0.493690000000     0.457680000000     0.0433266  
H155     H      0.290330000000     0.494200000000     0.532710000000     0.0432954  
H156     H      0.190900000000     0.993700000000     0.532450000000     0.0435104  
H157     H      0.241030000000     0.543580000000     0.199230000000     0.0436016  
H158     H      0.241540000000     0.944670000000     0.199260000000     0.0436002  
H159     H      0.241090000000     0.944420000000     0.124210000000     0.0438922  
H160     H      0.241600000000     0.543850000000     0.124190000000     0.043937   
H161     H      0.040770000000     0.743870000000     0.457390000000     0.0427083  
H162     H      0.441860000000     0.744390000000     0.457640000000     0.0433442  
H163     H      0.441710000000     0.743890000000     0.532680000000     0.0432788  
H164     H      0.041140000000     0.744390000000     0.532440000000     0.0427571  
H165     H      0.422610000000     0.618320000000     0.328600000000     0.0438489  
H166     H      0.365310000000     0.675640000000     0.328590000000     0.0438571  
H167     H      0.309420000000     0.619760000000     0.328620000000     0.0438468  
H168     H      0.366720000000     0.562440000000     0.328610000000     0.0438106  
H169     H      0.059410000000     0.869750000000     0.328160000000     0.0458303  
H170     H      0.116740000000     0.812450000000     0.328150000000     0.0443964  
H171     H      0.172610000000     0.868330000000     0.328160000000     0.0439419  
H172     H      0.115290000000     0.925630000000     0.328150000000     0.0443799  
H173     H      0.490490000000     0.793410000000     0.199260000000     0.0434159  
H174     H      0.991000000000     0.694490000000     0.199190000000     0.0414163  
H175     H      0.990430000000     0.694240000000     0.124150000000     0.0424247  
H176     H      0.490950000000     0.793660000000     0.124210000000     0.0438074  
H177     H      0.040720000000     0.993850000000     0.457360000000     0.0426462  
H178     H      0.441810000000     0.494370000000     0.457680000000     0.0433084  
H179     H      0.441660000000     0.493870000000     0.532720000000     0.0432773  
H180     H      0.041080000000     0.994380000000     0.532410000000     0.0427668  
H181     H      0.365340000000     0.925650000000     0.328460000000     0.043826   
H182     H      0.422630000000     0.868310000000     0.328470000000     0.0438457  
H183     H      0.366740000000     0.812440000000     0.328480000000     0.0438179  
H184     H      0.309450000000     0.869780000000     0.328480000000     0.0438514  
H185     H      0.059430000000     0.619740000000     0.328280000000     0.045825   
H186     H      0.116780000000     0.562460000000     0.328280000000     0.0443567  
H187     H      0.172650000000     0.618350000000     0.328270000000     0.0439414  
H188     H      0.115310000000     0.675640000000     0.328260000000     0.04442    
H189     H      0.990680000000     0.543460000000     0.199270000000     0.0420227  
H190     H      0.491200000000     0.944550000000     0.199190000000     0.0434182  
H191     H      0.490730000000     0.944310000000     0.124150000000     0.0437997  
H192     H      0.991240000000     0.543740000000     0.124230000000     0.0417825  
H193     H      0.797910000000     0.425600000000     0.661740000000     0.0438174  
H194     H      0.683280000000     0.368300000000     0.661720000000     0.0438406  
H195     H      0.683280000000     0.312420000000     0.661710000000     0.0438181  
H196     H      0.797900000000     0.369720000000     0.661710000000     0.0437949  
H197     H      0.797900000000     0.175610000000     0.661760000000     0.0438229  
H198     H      0.683280000000     0.118290000000     0.661730000000     0.0438779  
H199     H      0.683280000000     0.062410000000     0.661720000000     0.0438751  
H200     H      0.797910000000     0.119730000000     0.661720000000     0.0438235  
H201     H      0.934160000000     0.368380000000     0.661730000000     0.0434173  
H202     H      0.548780000000     0.425680000000     0.661720000000     0.0438119  
H203     H      0.548780000000     0.369800000000     0.661720000000     0.0438355  
H204     H      0.934150000000     0.312500000000     0.661750000000     0.0434507  
H205     H      0.934160000000     0.062490000000     0.661720000000     0.0434978  
H206     H      0.548780000000     0.119810000000     0.661690000000     0.0438387  
H207     H      0.548780000000     0.175690000000     0.661690000000     0.0438035  
H208     H      0.934150000000     0.118370000000     0.661700000000     0.0434316  
H209     H      0.790100000000     0.293730000000     0.865870000000     0.0432093  
H210     H      0.691190000000     0.194300000000     0.865960000000     0.04334    
H211     H      0.690850000000     0.194570000000     0.790910000000     0.0433503  
H212     H      0.790270000000     0.293480000000     0.790840000000     0.0432195  
H213     H      0.790350000000     0.043770000000     0.865790000000     0.0431907  
H214     H      0.691440000000     0.444340000000     0.866030000000     0.0433692  
H215     H      0.691000000000     0.444600000000     0.790980000000     0.0433307  
H216     H      0.790430000000     0.043510000000     0.790760000000     0.0432127  
H217     H      0.865160000000     0.186700000000     0.994800000000     0.0434106  
H218     H      0.922480000000     0.301330000000     0.994800000000     0.0422676  
H219     H      0.866600000000     0.301330000000     0.994820000000     0.0433565  
H220     H      0.809290000000     0.186700000000     0.994790000000     0.0436138  
H221     H      0.559290000000     0.186700000000     0.995300000000     0.0435677  
H222     H      0.616600000000     0.301330000000     0.995320000000     0.043593   
H223     H      0.672480000000     0.301330000000     0.995310000000     0.0435636  
H224     H      0.615170000000     0.186700000000     0.995310000000     0.0435832  
H225     H      0.941740000000     0.194330000000     0.865810000000     0.0427603  
H226     H      0.540640000000     0.293760000000     0.866000000000     0.0433556  
H227     H      0.541070000000     0.293490000000     0.790960000000     0.0433165  
H228     H      0.941650000000     0.194580000000     0.790770000000     0.042774   
H229     H      0.922790000000     0.051390000000     0.994770000000     0.0422427  
H230     H      0.865470000000     0.436760000000     0.994850000000     0.0434279  
H231     H      0.809590000000     0.436770000000     0.994840000000     0.0436056  
H232     H      0.866910000000     0.051390000000     0.994790000000     0.0433135  
H233     H      0.559600000000     0.436760000000     0.995320000000     0.0435736  
H234     H      0.616910000000     0.051390000000     0.995250000000     0.0435613  
H235     H      0.672790000000     0.051390000000     0.995260000000     0.0435514  
H236     H      0.615480000000     0.436770000000     0.995330000000     0.0435986  
H237     H      0.040870000000     0.043800000000     0.865910000000     0.0426966  
H238     H      0.441960000000     0.444370000000     0.865890000000     0.0433318  
H239     H      0.441780000000     0.444620000000     0.790860000000     0.0433137  
H240     H      0.041210000000     0.043530000000     0.790860000000     0.0427827  
H241     H      0.790260000000     0.243720000000     0.457670000000     0.0431873  
H242     H      0.691350000000     0.244240000000     0.457410000000     0.0433446  
H243     H      0.690980000000     0.243720000000     0.532450000000     0.0433376  
H244     H      0.790400000000     0.244230000000     0.532710000000     0.0432258  
H245     H      0.740900000000     0.293550000000     0.199250000000     0.0434245  
H246     H      0.741410000000     0.194640000000     0.199250000000     0.0434409  
H247     H      0.740850000000     0.194350000000     0.124200000000     0.0437699  
H248     H      0.741360000000     0.293780000000     0.124210000000     0.0438071  
H249     H      0.691270000000     0.494220000000     0.457430000000     0.043318   
H250     H      0.790180000000     0.993690000000     0.457640000000     0.0431464  
H251     H      0.790330000000     0.994210000000     0.532680000000     0.0431585  
H252     H      0.690910000000     0.493700000000     0.532480000000     0.0433167  
H253     H      0.741030000000     0.043580000000     0.199190000000     0.0434237  
H254     H      0.741540000000     0.444670000000     0.199300000000     0.0434219  
H255     H      0.741090000000     0.444420000000     0.124250000000     0.0437993  
H256     H      0.741610000000     0.043850000000     0.124150000000     0.0437768  
H257     H      0.540760000000     0.243880000000     0.457400000000     0.0433245  
H258     H      0.941850000000     0.244400000000     0.457660000000     0.0427451  
H259     H      0.941710000000     0.243900000000     0.532690000000     0.04274    
H260     H      0.541140000000     0.244400000000     0.532450000000     0.0433041  
H261     H      0.922600000000     0.118320000000     0.328600000000     0.0425787  
H262     H      0.865300000000     0.175640000000     0.328580000000     0.0436897  
H263     H      0.809420000000     0.119760000000     0.328590000000     0.0439161  
H264     H      0.866720000000     0.062440000000     0.328590000000     0.0436722  
H265     H      0.559410000000     0.369750000000     0.328180000000     0.0438659  
H266     H      0.616730000000     0.312450000000     0.328180000000     0.043883   
H267     H      0.672610000000     0.368330000000     0.328200000000     0.0438633  
H268     H      0.615290000000     0.425640000000     0.328180000000     0.0438583  
H269     H      0.990500000000     0.293410000000     0.199270000000     0.0420415  
H270     H      0.491010000000     0.194500000000     0.199210000000     0.0434418  
H271     H      0.490450000000     0.194240000000     0.124170000000     0.0438177  
H272     H      0.990960000000     0.293670000000     0.124220000000     0.0417666  
H273     H      0.540720000000     0.493850000000     0.457440000000     0.0433378  
H274     H      0.941810000000     0.994370000000     0.457610000000     0.0426702  
H275     H      0.941660000000     0.993870000000     0.532640000000     0.0427233  
H276     H      0.541090000000     0.494380000000     0.532490000000     0.0433146  
H277     H      0.865350000000     0.425650000000     0.328530000000     0.0437129  
H278     H      0.922630000000     0.368310000000     0.328550000000     0.0425452  
H279     H      0.866740000000     0.312440000000     0.328540000000     0.0436156  
H280     H      0.809450000000     0.369780000000     0.328540000000     0.0438551  
H281     H      0.559440000000     0.119740000000     0.328230000000     0.0438708  
H282     H      0.616780000000     0.062460000000     0.328230000000     0.0439122  
H283     H      0.672650000000     0.118350000000     0.328260000000     0.0439094  
H284     H      0.615310000000     0.175630000000     0.328230000000     0.04387    
H285     H      0.490690000000     0.043460000000     0.199200000000     0.0434091  
H286     H      0.991190000000     0.444540000000     0.199270000000     0.0414345  
H287     H      0.990730000000     0.444310000000     0.124230000000     0.0424087  
H288     H      0.491250000000     0.043740000000     0.124150000000     0.0437806  
H289     H      0.797910000000     0.925610000000     0.661710000000     0.0437938  
H290     H      0.683290000000     0.868310000000     0.661680000000     0.0438648  
H291     H      0.683280000000     0.812420000000     0.661670000000     0.0437956  
H292     H      0.797910000000     0.869720000000     0.661680000000     0.0437817  
H293     H      0.797900000000     0.675610000000     0.661760000000     0.0438175  
H294     H      0.683280000000     0.618290000000     0.661730000000     0.0438167  
H295     H      0.683290000000     0.562420000000     0.661740000000     0.0438484  
H296     H      0.797910000000     0.619730000000     0.661750000000     0.0438102  
H297     H      0.934160000000     0.868380000000     0.661660000000     0.0434345  
H298     H      0.548780000000     0.925680000000     0.661650000000     0.0437679  
H299     H      0.548770000000     0.869790000000     0.661670000000     0.0438138  
H300     H      0.934150000000     0.812490000000     0.661690000000     0.0434295  
H301     H      0.934160000000     0.562490000000     0.661770000000     0.0434464  
H302     H      0.548780000000     0.619810000000     0.661750000000     0.0438168  
H303     H      0.548770000000     0.675690000000     0.661720000000     0.043824   
H304     H      0.934150000000     0.618360000000     0.661730000000     0.0434207  
H305     H      0.790090000000     0.793730000000     0.865860000000     0.0432085  
H306     H      0.691180000000     0.694300000000     0.865940000000     0.0433343  
H307     H      0.690840000000     0.694570000000     0.790880000000     0.0433224  
H308     H      0.790270000000     0.793490000000     0.790820000000     0.0432042  
H309     H      0.790340000000     0.543770000000     0.865830000000     0.0432188  
H310     H      0.691440000000     0.944340000000     0.865990000000     0.0433274  
H311     H      0.691010000000     0.944600000000     0.790950000000     0.0433337  
H312     H      0.790430000000     0.543520000000     0.790800000000     0.0432341  
H313     H      0.865150000000     0.686700000000     0.994780000000     0.0434125  
H314     H      0.922460000000     0.801330000000     0.994790000000     0.0422715  
H315     H      0.866580000000     0.801330000000     0.994800000000     0.0433578  
H316     H      0.809270000000     0.686700000000     0.994780000000     0.0436121  
H317     H      0.559270000000     0.686700000000     0.995270000000     0.0435875  
H318     H      0.616580000000     0.801330000000     0.995300000000     0.0436154  
H319     H      0.672460000000     0.801330000000     0.995290000000     0.0435567  
H320     H      0.615150000000     0.686700000000     0.995280000000     0.0435717  
H321     H      0.941720000000     0.694330000000     0.865790000000     0.0427715  
H322     H      0.540630000000     0.793760000000     0.865990000000     0.0433572  
H323     H      0.541060000000     0.793500000000     0.790940000000     0.0433188  
H324     H      0.941630000000     0.694590000000     0.790750000000     0.0427457  
H325     H      0.922790000000     0.551390000000     0.994830000000     0.0422738  
H326     H      0.865480000000     0.936760000000     0.994790000000     0.0434093  
H327     H      0.809600000000     0.936770000000     0.994790000000     0.0436096  
H328     H      0.866910000000     0.551390000000     0.994840000000     0.0433365  
H329     H      0.559600000000     0.936760000000     0.995260000000     0.0435502  
H330     H      0.616900000000     0.551390000000     0.995320000000     0.043598   
H331     H      0.672790000000     0.551390000000     0.995310000000     0.0435744  
H332     H      0.615480000000     0.936770000000     0.995280000000     0.0436031  
H333     H      0.040870000000     0.543800000000     0.865980000000     0.0427101  
H334     H      0.441960000000     0.944370000000     0.865820000000     0.0433255  
H335     H      0.441780000000     0.944620000000     0.790780000000     0.043287   
H336     H      0.041210000000     0.543530000000     0.790930000000     0.04281    
H337     H      0.790270000000     0.743730000000     0.457650000000     0.0431815  
H338     H      0.691360000000     0.744250000000     0.457390000000     0.0433358  
H339     H      0.690990000000     0.743720000000     0.532430000000     0.0433171  
H340     H      0.790420000000     0.744240000000     0.532690000000     0.0431969  
H341     H      0.740880000000     0.793540000000     0.199230000000     0.0434443  
H342     H      0.741390000000     0.694630000000     0.199230000000     0.0434402  
H343     H      0.740820000000     0.694350000000     0.124180000000     0.0437951  
H344     H      0.741340000000     0.793780000000     0.124190000000     0.0437978  
H345     H      0.691270000000     0.994220000000     0.457390000000     0.0432525  
H346     H      0.790180000000     0.493690000000     0.457680000000     0.0432153  
H347     H      0.790330000000     0.494200000000     0.532710000000     0.0431923  
H348     H      0.690900000000     0.993700000000     0.532450000000     0.0432552  
H349     H      0.741020000000     0.543580000000     0.199230000000     0.0434407  
H350     H      0.741540000000     0.944670000000     0.199260000000     0.0434491  
H351     H      0.741090000000     0.944420000000     0.124210000000     0.0437407  
H352     H      0.741600000000     0.543850000000     0.124190000000     0.0437871  
H353     H      0.540770000000     0.743870000000     0.457390000000     0.0433355  
H354     H      0.941860000000     0.744390000000     0.457640000000     0.0427601  
H355     H      0.941720000000     0.743890000000     0.532680000000     0.0427444  
H356     H      0.541140000000     0.744390000000     0.532440000000     0.0432754  
H357     H      0.922610000000     0.618320000000     0.328600000000     0.0425651  
H358     H      0.865310000000     0.675640000000     0.328590000000     0.0437407  
H359     H      0.809420000000     0.619760000000     0.328620000000     0.0438549  
H360     H      0.866720000000     0.562440000000     0.328610000000     0.0435984  
H361     H      0.559410000000     0.869750000000     0.328160000000     0.0438382  
H362     H      0.616740000000     0.812450000000     0.328150000000     0.0438631  
H363     H      0.672610000000     0.868330000000     0.328160000000     0.0438706  
H364     H      0.615290000000     0.925630000000     0.328150000000     0.043818   
H365     H      0.990490000000     0.793410000000     0.199260000000     0.0420385  
H366     H      0.491000000000     0.694490000000     0.199190000000     0.0434144  
H367     H      0.490430000000     0.694240000000     0.124150000000     0.043826   
H368     H      0.990950000000     0.793660000000     0.124210000000     0.0418018  
H369     H      0.540720000000     0.993850000000     0.457360000000     0.0432728  
H370     H      0.941810000000     0.494370000000     0.457680000000     0.0427302  
H371     H      0.941660000000     0.493870000000     0.532720000000     0.0427211  
H372     H      0.541090000000     0.994380000000     0.532410000000     0.0432689  
H373     H      0.865350000000     0.925650000000     0.328460000000     0.0437046  
H374     H      0.922630000000     0.868310000000     0.328470000000     0.0425498  
H375     H      0.866740000000     0.812440000000     0.328480000000     0.0436157  
H376     H      0.809450000000     0.869780000000     0.328480000000     0.043868   
H377     H      0.559430000000     0.619740000000     0.328280000000     0.0438735  
H378     H      0.616780000000     0.562460000000     0.328280000000     0.0438377  
H379     H      0.672640000000     0.618350000000     0.328270000000     0.0438777  
H380     H      0.615310000000     0.675640000000     0.328260000000     0.0438419  
H381     H      0.490680000000     0.543460000000     0.199270000000     0.043409   
H382     H      0.991200000000     0.944550000000     0.199190000000     0.0414205  
H383     H      0.990730000000     0.944310000000     0.124150000000     0.0424117  
H384     H      0.491240000000     0.543740000000     0.124230000000     0.0437918  
Ni1      Ni     0.475230000000     0.009860000000     0.328380000000     0.995589   
Ni2      Ni     0.006880000000     0.478210000000     0.328380000000     1.01673    
Ni3      Ni     0.006840000000     0.228210000000     0.328320000000     1.01637    
Ni4      Ni     0.475200000000     0.259860000000     0.328440000000     0.994794   
Ni5      Ni     0.256830000000     0.478220000000     0.328470000000     0.995076   
Ni6      Ni     0.225180000000     0.009870000000     0.328310000000     0.995818   
Ni7      Ni     0.225200000000     0.259880000000     0.328350000000     0.995226   
Ni8      Ni     0.256850000000     0.228230000000     0.328430000000     0.995035   
Ni9      Ni     0.475370000000     0.462430000000     0.995070000000     0.992493   
Ni10     Ni     0.007020000000     0.025720000000     0.995020000000     1.0139     
Ni11     Ni     0.006710000000     0.275660000000     0.995060000000     1.01395    
Ni12     Ni     0.475060000000     0.212360000000     0.995030000000     0.992842   
Ni13     Ni     0.225370000000     0.462430000000     0.995090000000     0.992771   
Ni14     Ni     0.257020000000     0.025730000000     0.995020000000     0.992842   
Ni15     Ni     0.256710000000     0.275670000000     0.995050000000     0.992848   
Ni16     Ni     0.225060000000     0.212370000000     0.995070000000     0.992674   
Ni17     Ni     0.023120000000     0.009910000000     0.661650000000     1.00198    
Ni18     Ni     0.459830000000     0.478270000000     0.661770000000     0.995435   
Ni19     Ni     0.023100000000     0.259900000000     0.661730000000     1.00139    
Ni20     Ni     0.459810000000     0.228260000000     0.661710000000     0.995186   
Ni21     Ni     0.208960000000     0.478200000000     0.661760000000     0.994868   
Ni22     Ni     0.272250000000     0.009840000000     0.661690000000     0.995471   
Ni23     Ni     0.208940000000     0.228190000000     0.661710000000     0.99499    
Ni24     Ni     0.272230000000     0.259830000000     0.661750000000     0.995025   
Ni25     Ni     0.475230000000     0.509860000000     0.328450000000     0.994932   
Ni26     Ni     0.006880000000     0.978210000000     0.328310000000     1.0157     
Ni27     Ni     0.006840000000     0.728210000000     0.328310000000     1.01632    
Ni28     Ni     0.475200000000     0.759860000000     0.328430000000     0.994823   
Ni29     Ni     0.256830000000     0.978220000000     0.328440000000     0.994311   
Ni30     Ni     0.225180000000     0.509870000000     0.328350000000     0.995078   
Ni31     Ni     0.225200000000     0.759880000000     0.328340000000     0.995448   
Ni32     Ni     0.256850000000     0.728230000000     0.328410000000     0.994712   
Ni33     Ni     0.475370000000     0.962430000000     0.995000000000     0.992176   
Ni34     Ni     0.007010000000     0.525720000000     0.995090000000     1.01402    
Ni35     Ni     0.006690000000     0.775660000000     0.995060000000     1.01394    
Ni36     Ni     0.475040000000     0.712370000000     0.995020000000     0.992568   
Ni37     Ni     0.225370000000     0.962430000000     0.995050000000     0.992494   
Ni38     Ni     0.257010000000     0.525730000000     0.995060000000     0.992464   
Ni39     Ni     0.256690000000     0.775670000000     0.995030000000     0.99287    
Ni40     Ni     0.225040000000     0.712370000000     0.995050000000     0.992705   
Ni41     Ni     0.023120000000     0.509910000000     0.661730000000     1.00126    
Ni42     Ni     0.459820000000     0.978270000000     0.661690000000     0.99434    
Ni43     Ni     0.023100000000     0.759900000000     0.661720000000     1.00139    
Ni44     Ni     0.459800000000     0.728260000000     0.661690000000     0.995142   
Ni45     Ni     0.208960000000     0.978200000000     0.661720000000     0.994109   
Ni46     Ni     0.272250000000     0.509840000000     0.661730000000     0.994929   
Ni47     Ni     0.208950000000     0.728190000000     0.661680000000     0.994921   
Ni48     Ni     0.272240000000     0.759840000000     0.661730000000     0.995059   
Ni49     Ni     0.975230000000     0.009860000000     0.328380000000     0.971556   
Ni50     Ni     0.506880000000     0.478210000000     0.328380000000     0.99515    
Ni51     Ni     0.506840000000     0.228210000000     0.328320000000     0.994851   
Ni52     Ni     0.975200000000     0.259860000000     0.328440000000     0.970709   
Ni53     Ni     0.756830000000     0.478220000000     0.328470000000     0.995121   
Ni54     Ni     0.725180000000     0.009870000000     0.328310000000     0.995633   
Ni55     Ni     0.725200000000     0.259880000000     0.328350000000     0.994963   
Ni56     Ni     0.756850000000     0.228230000000     0.328430000000     0.995024   
Ni57     Ni     0.975370000000     0.462430000000     0.995070000000     0.968423   
Ni58     Ni     0.507020000000     0.025720000000     0.995020000000     0.992456   
Ni59     Ni     0.506710000000     0.275660000000     0.995060000000     0.992427   
Ni60     Ni     0.975060000000     0.212360000000     0.995030000000     0.968809   
Ni61     Ni     0.725370000000     0.462430000000     0.995090000000     0.992752   
Ni62     Ni     0.757020000000     0.025730000000     0.995020000000     0.992903   
Ni63     Ni     0.756710000000     0.275670000000     0.995050000000     0.992893   
Ni64     Ni     0.725060000000     0.212370000000     0.995070000000     0.992455   
Ni65     Ni     0.523120000000     0.009910000000     0.661650000000     0.995294   
Ni66     Ni     0.959830000000     0.478270000000     0.661770000000     0.982833   
Ni67     Ni     0.523100000000     0.259900000000     0.661730000000     0.99462    
Ni68     Ni     0.959810000000     0.228260000000     0.661710000000     0.982599   
Ni69     Ni     0.708960000000     0.478200000000     0.661760000000     0.994558   
Ni70     Ni     0.772250000000     0.009840000000     0.661690000000     0.995549   
Ni71     Ni     0.708940000000     0.228190000000     0.661710000000     0.994681   
Ni72     Ni     0.772230000000     0.259830000000     0.661750000000     0.995076   
Ni73     Ni     0.975230000000     0.509860000000     0.328450000000     0.970805   
Ni74     Ni     0.506880000000     0.978210000000     0.328310000000     0.994176   
Ni75     Ni     0.506840000000     0.728210000000     0.328310000000     0.994818   
Ni76     Ni     0.975200000000     0.759860000000     0.328430000000     0.970789   
Ni77     Ni     0.756830000000     0.978220000000     0.328440000000     0.994346   
Ni78     Ni     0.725180000000     0.509870000000     0.328350000000     0.994861   
Ni79     Ni     0.725200000000     0.759880000000     0.328340000000     0.995232   
Ni80     Ni     0.756850000000     0.728230000000     0.328410000000     0.994757   
Ni81     Ni     0.975370000000     0.962430000000     0.995000000000     0.96821    
Ni82     Ni     0.507010000000     0.525720000000     0.995090000000     0.992464   
Ni83     Ni     0.506690000000     0.775660000000     0.995060000000     0.992386   
Ni84     Ni     0.975040000000     0.712370000000     0.995020000000     0.968516   
Ni85     Ni     0.725370000000     0.962430000000     0.995050000000     0.992273   
Ni86     Ni     0.757010000000     0.525730000000     0.995060000000     0.992476   
Ni87     Ni     0.756690000000     0.775670000000     0.995030000000     0.992919   
Ni88     Ni     0.725040000000     0.712370000000     0.995050000000     0.992488   
Ni89     Ni     0.523120000000     0.509910000000     0.661730000000     0.994479   
Ni90     Ni     0.959820000000     0.978270000000     0.661690000000     0.981834   
Ni91     Ni     0.523100000000     0.759900000000     0.661720000000     0.994617   
Ni92     Ni     0.959800000000     0.728260000000     0.661690000000     0.982554   
Ni93     Ni     0.708960000000     0.978200000000     0.661720000000     0.993785   
Ni94     Ni     0.772250000000     0.509840000000     0.661730000000     0.994982   
Ni95     Ni     0.708940000000     0.728190000000     0.661680000000     0.994685   
Ni96     Ni     0.772240000000     0.759840000000     0.661730000000     0.995253   
O1       O      0.476950000000     0.009530000000     0.269620000000    -0.434042   
O2       O      0.475620000000     0.008100000000     0.387130000000    -0.433972   
O3       O      0.020250000000     0.052760000000     0.329090000000    -0.425646   
O4       O      0.432330000000     0.464840000000     0.327740000000    -0.43542    
O5       O      0.461860000000     0.435310000000     0.329230000000    -0.435259   
O6       O      0.049780000000     0.023230000000     0.327460000000    -0.435915   
O7       O      0.006660000000     0.480030000000     0.387120000000    -0.426043   
O8       O      0.005020000000     0.478490000000     0.269640000000    -0.423777   
O9       O      0.461820000000     0.185310000000     0.329230000000    -0.435334   
O10      O      0.049740000000     0.273230000000     0.327430000000    -0.436157   
O11      O      0.006670000000     0.230050000000     0.387070000000    -0.426032   
O12      O      0.004920000000     0.228480000000     0.269580000000    -0.423729   
O13      O      0.476850000000     0.259520000000     0.269690000000    -0.434271   
O14      O      0.475640000000     0.258120000000     0.387190000000    -0.434398   
O15      O      0.020210000000     0.302770000000     0.329110000000    -0.425275   
O16      O      0.432290000000     0.214840000000     0.327770000000    -0.435286   
O17      O      0.299730000000     0.023240000000     0.327770000000    -0.435134   
O18      O      0.211810000000     0.435320000000     0.329130000000    -0.435317   
O19      O      0.255170000000     0.478560000000     0.269720000000    -0.43434    
O20      O      0.256390000000     0.479970000000     0.387220000000    -0.434442   
O21      O      0.225350000000     0.008030000000     0.387060000000    -0.434109   
O22      O      0.227110000000     0.009610000000     0.269570000000    -0.433775   
O23      O      0.182280000000     0.464850000000     0.327450000000    -0.434931   
O24      O      0.270200000000     0.052770000000     0.329210000000    -0.435267   
O25      O      0.182300000000     0.214860000000     0.327500000000    -0.434902   
O26      O      0.270220000000     0.302780000000     0.329210000000    -0.435232   
O27      O      0.227080000000     0.259600000000     0.269610000000    -0.434326   
O28      O      0.225420000000     0.258060000000     0.387100000000    -0.43436    
O29      O      0.256460000000     0.229990000000     0.387180000000    -0.434275   
O30      O      0.255140000000     0.228560000000     0.269680000000    -0.434341   
O31      O      0.299750000000     0.273250000000     0.327730000000    -0.435429   
O32      O      0.211840000000     0.185330000000     0.329140000000    -0.435191   
O33      O      0.020390000000     0.464540000000     0.994420000000    -0.425456   
O34      O      0.432460000000     0.464540000000     0.995720000000    -0.435342   
O35      O      0.475780000000     0.464530000000     0.936330000000    -0.433931   
O36      O      0.477050000000     0.464500000000     0.053820000000    -0.432162   
O37      O      0.005120000000     0.023610000000     0.053770000000    -0.421248   
O38      O      0.006820000000     0.023640000000     0.936270000000    -0.42518    
O39      O      0.462000000000     0.023610000000     0.994100000000    -0.43492    
O40      O      0.049920000000     0.023610000000     0.995930000000    -0.435918   
O41      O      0.049610000000     0.273540000000     0.995990000000    -0.436451   
O42      O      0.461690000000     0.273550000000     0.994140000000    -0.435149   
O43      O      0.004800000000     0.273540000000     0.053810000000    -0.421489   
O44      O      0.006530000000     0.273590000000     0.936320000000    -0.425515   
O45      O      0.475490000000     0.214480000000     0.936290000000    -0.434035   
O46      O      0.476730000000     0.214430000000     0.053780000000    -0.432147   
O47      O      0.432160000000     0.214480000000     0.995680000000    -0.435371   
O48      O      0.020080000000     0.214480000000     0.994400000000    -0.42571    
O49      O      0.270380000000     0.464550000000     0.994180000000    -0.435489   
O50      O      0.182460000000     0.464550000000     0.996000000000    -0.43508    
O51      O      0.225550000000     0.464500000000     0.936340000000    -0.433847   
O52      O      0.227260000000     0.464550000000     0.053840000000    -0.431935   
O53      O      0.255340000000     0.023660000000     0.053770000000    -0.431829   
O54      O      0.256600000000     0.023610000000     0.936270000000    -0.433664   
O55      O      0.212000000000     0.023610000000     0.994370000000    -0.435123   
O56      O      0.299920000000     0.023610000000     0.995670000000    -0.43513    
O57      O      0.211690000000     0.273550000000     0.994410000000    -0.435318   
O58      O      0.299610000000     0.273550000000     0.995690000000    -0.435549   
O59      O      0.256290000000     0.273560000000     0.936310000000    -0.434055   
O60      O      0.255030000000     0.273590000000     0.053800000000    -0.432194   
O61      O      0.226960000000     0.214480000000     0.053820000000    -0.431929   
O62      O      0.225250000000     0.214450000000     0.936320000000    -0.433713   
O63      O      0.270080000000     0.214490000000     0.994150000000    -0.435429   
O64      O      0.182160000000     0.214490000000     0.995990000000    -0.435082   
O65      O      0.021050000000     0.009610000000     0.720410000000    -0.424926   
O66      O      0.020990000000     0.008130000000     0.602900000000    -0.424849   
O67      O      0.021000000000     0.052820000000     0.660900000000    -0.426164   
O68      O      0.021010000000     0.464900000000     0.662490000000    -0.426091   
O69      O      0.461940000000     0.435370000000     0.660960000000    -0.435352   
O70      O      0.461940000000     0.023290000000     0.662490000000    -0.43506    
O71      O      0.461890000000     0.480060000000     0.603030000000    -0.434651   
O72      O      0.461950000000     0.478570000000     0.720510000000    -0.4346     
O73      O      0.020990000000     0.214890000000     0.662490000000    -0.426208   
O74      O      0.020990000000     0.302810000000     0.660960000000    -0.426024   
O75      O      0.020990000000     0.259580000000     0.720480000000    -0.425066   
O76      O      0.021010000000     0.258130000000     0.602970000000    -0.4252     
O77      O      0.461910000000     0.230070000000     0.602970000000    -0.434556   
O78      O      0.461880000000     0.228540000000     0.720440000000    -0.434534   
O79      O      0.461920000000     0.273280000000     0.662500000000    -0.43511    
O80      O      0.461930000000     0.185360000000     0.660910000000    -0.435305   
O81      O      0.211070000000     0.023210000000     0.662500000000    -0.434812   
O82      O      0.211070000000     0.435290000000     0.660980000000    -0.435132   
O83      O      0.211080000000     0.478520000000     0.720520000000    -0.434052   
O84      O      0.211040000000     0.479970000000     0.603000000000    -0.434077   
O85      O      0.270140000000     0.008040000000     0.602950000000    -0.434262   
O86      O      0.270190000000     0.009550000000     0.720430000000    -0.434151   
O87      O      0.270130000000     0.464820000000     0.662520000000    -0.435354   
O88      O      0.270140000000     0.052750000000     0.660910000000    -0.435121   
O89      O      0.211050000000     0.185280000000     0.660950000000    -0.434961   
O90      O      0.211050000000     0.273200000000     0.662470000000    -0.435092   
O91      O      0.211070000000     0.229970000000     0.602950000000    -0.434109   
O92      O      0.211010000000     0.228490000000     0.720460000000    -0.434229   
O93      O      0.270110000000     0.259530000000     0.720490000000    -0.434468   
O94      O      0.270170000000     0.258040000000     0.603010000000    -0.434616   
O95      O      0.270120000000     0.302730000000     0.660950000000    -0.435305   
O96      O      0.270120000000     0.214810000000     0.662550000000    -0.435228   
O97      O      0.476950000000     0.509530000000     0.269700000000    -0.434347   
O98      O      0.475620000000     0.508100000000     0.387200000000    -0.43424    
O99      O      0.020250000000     0.552760000000     0.329160000000    -0.425571   
O100     O      0.432330000000     0.964850000000     0.327660000000    -0.435554   
O101     O      0.461860000000     0.935310000000     0.329160000000    -0.435092   
O102     O      0.049780000000     0.523230000000     0.327530000000    -0.43624    
O103     O      0.006660000000     0.980030000000     0.387050000000    -0.42599    
O104     O      0.005020000000     0.978490000000     0.269560000000    -0.423513   
O105     O      0.461830000000     0.685310000000     0.329210000000    -0.435206   
O106     O      0.049750000000     0.773230000000     0.327410000000    -0.436029   
O107     O      0.006680000000     0.730050000000     0.387060000000    -0.426016   
O108     O      0.004920000000     0.728470000000     0.269570000000    -0.423596   
O109     O      0.476850000000     0.759510000000     0.269680000000    -0.434354   
O110     O      0.475640000000     0.758110000000     0.387180000000    -0.43441    
O111     O      0.020210000000     0.802760000000     0.329090000000    -0.425427   
O112     O      0.432290000000     0.714840000000     0.327770000000    -0.435223   
O113     O      0.299730000000     0.523240000000     0.327800000000    -0.435455   
O114     O      0.211810000000     0.935320000000     0.329090000000    -0.43525    
O115     O      0.255180000000     0.978570000000     0.269680000000    -0.434167   
O116     O      0.256390000000     0.979970000000     0.387180000000    -0.434414   
O117     O      0.225350000000     0.508030000000     0.387100000000    -0.434408   
O118     O      0.227110000000     0.509600000000     0.269600000000    -0.434232   
O119     O      0.182280000000     0.964850000000     0.327410000000    -0.4352     
O120     O      0.270200000000     0.552770000000     0.329250000000    -0.435235   
O121     O      0.182300000000     0.714860000000     0.327500000000    -0.435104   
O122     O      0.270220000000     0.802790000000     0.329180000000    -0.435122   
O123     O      0.227060000000     0.759600000000     0.269600000000    -0.434151   
O124     O      0.225430000000     0.758070000000     0.387080000000    -0.434664   
O125     O      0.256460000000     0.730010000000     0.387160000000    -0.434474   
O126     O      0.255130000000     0.728560000000     0.269650000000    -0.434177   
O127     O      0.299750000000     0.773250000000     0.327690000000    -0.435228   
O128     O      0.211830000000     0.685330000000     0.329130000000    -0.435254   
O129     O      0.020390000000     0.964540000000     0.994350000000    -0.425344   
O130     O      0.432470000000     0.964540000000     0.995650000000    -0.435381   
O131     O      0.475780000000     0.964530000000     0.936250000000    -0.433806   
O132     O      0.477060000000     0.964500000000     0.053750000000    -0.432068   
O133     O      0.005120000000     0.523610000000     0.053840000000    -0.4215     
O134     O      0.006820000000     0.523640000000     0.936340000000    -0.425432   
O135     O      0.462000000000     0.523610000000     0.994180000000    -0.435315   
O136     O      0.049910000000     0.523610000000     0.996000000000    -0.436252   
O137     O      0.049590000000     0.773550000000     0.995970000000    -0.43632    
O138     O      0.461670000000     0.773550000000     0.994130000000    -0.435149   
O139     O      0.004780000000     0.773540000000     0.053800000000    -0.421585   
O140     O      0.006500000000     0.773590000000     0.936310000000    -0.425413   
O141     O      0.475470000000     0.714480000000     0.936270000000    -0.433918   
O142     O      0.476720000000     0.714430000000     0.053770000000    -0.432125   
O143     O      0.432140000000     0.714480000000     0.995660000000    -0.435397   
O144     O      0.020060000000     0.714480000000     0.994380000000    -0.425504   
O145     O      0.270390000000     0.964550000000     0.994140000000    -0.435257   
O146     O      0.182470000000     0.964550000000     0.995960000000    -0.435131   
O147     O      0.225560000000     0.964500000000     0.936310000000    -0.433808   
O148     O      0.227270000000     0.964550000000     0.053800000000    -0.431859   
O149     O      0.255330000000     0.523660000000     0.053810000000    -0.432093   
O150     O      0.256590000000     0.523610000000     0.936310000000    -0.433949   
O151     O      0.211990000000     0.523610000000     0.994410000000    -0.435353   
O152     O      0.299920000000     0.523610000000     0.995710000000    -0.435362   
O153     O      0.211670000000     0.773550000000     0.994390000000    -0.43532    
O154     O      0.299590000000     0.773550000000     0.995680000000    -0.435528   
O155     O      0.256270000000     0.773560000000     0.936290000000    -0.43412    
O156     O      0.255010000000     0.773590000000     0.053780000000    -0.432191   
O157     O      0.226940000000     0.714480000000     0.053800000000    -0.431944   
O158     O      0.225230000000     0.714460000000     0.936300000000    -0.433856   
O159     O      0.270060000000     0.714490000000     0.994130000000    -0.43542    
O160     O      0.182140000000     0.714490000000     0.995960000000    -0.435088   
O161     O      0.021050000000     0.509610000000     0.720480000000    -0.425173   
O162     O      0.020990000000     0.508130000000     0.602970000000    -0.425133   
O163     O      0.021000000000     0.552820000000     0.660970000000    -0.426051   
O164     O      0.021000000000     0.964890000000     0.662420000000    -0.42651    
O165     O      0.461940000000     0.935360000000     0.660890000000    -0.435227   
O166     O      0.461940000000     0.523280000000     0.662570000000    -0.435389   
O167     O      0.461880000000     0.980060000000     0.602950000000    -0.434346   
O168     O      0.461950000000     0.978570000000     0.720430000000    -0.43451    
O169     O      0.020980000000     0.714890000000     0.662500000000    -0.426264   
O170     O      0.020980000000     0.802810000000     0.660930000000    -0.42613    
O171     O      0.020980000000     0.759590000000     0.720480000000    -0.425111   
O172     O      0.021010000000     0.758120000000     0.602960000000    -0.425164   
O173     O      0.461910000000     0.730060000000     0.602950000000    -0.434558   
O174     O      0.461870000000     0.728550000000     0.720430000000    -0.434557   
O175     O      0.461920000000     0.773280000000     0.662470000000    -0.43538    
O176     O      0.461920000000     0.685350000000     0.660910000000    -0.435248   
O177     O      0.211070000000     0.523210000000     0.662530000000    -0.435095   
O178     O      0.211070000000     0.935290000000     0.660940000000    -0.435018   
O179     O      0.211080000000     0.978510000000     0.720480000000    -0.433882   
O180     O      0.211040000000     0.979970000000     0.602960000000    -0.434052   
O181     O      0.270140000000     0.508040000000     0.602990000000    -0.434518   
O182     O      0.270190000000     0.509560000000     0.720470000000    -0.434506   
O183     O      0.270140000000     0.964820000000     0.662480000000    -0.435435   
O184     O      0.270140000000     0.552750000000     0.660940000000    -0.435088   
O185     O      0.211060000000     0.685280000000     0.660930000000    -0.435085   
O186     O      0.211060000000     0.773210000000     0.662440000000    -0.435162   
O187     O      0.211080000000     0.729970000000     0.602930000000    -0.434185   
O188     O      0.211010000000     0.728500000000     0.720440000000    -0.434143   
O189     O      0.270110000000     0.759530000000     0.720470000000    -0.434497   
O190     O      0.270180000000     0.758040000000     0.602990000000    -0.434634   
O191     O      0.270120000000     0.802740000000     0.660920000000    -0.435415   
O192     O      0.270120000000     0.714820000000     0.662540000000    -0.435291   
O193     O      0.976950000000     0.009530000000     0.269620000000    -0.430288   
O194     O      0.975620000000     0.008100000000     0.387130000000    -0.431219   
O195     O      0.520250000000     0.052760000000     0.329090000000    -0.435394   
O196     O      0.932330000000     0.464840000000     0.327740000000    -0.433202   
O197     O      0.961860000000     0.435310000000     0.329230000000    -0.443805   
O198     O      0.549780000000     0.023230000000     0.327460000000    -0.434854   
O199     O      0.506660000000     0.480030000000     0.387120000000    -0.434461   
O200     O      0.505020000000     0.478490000000     0.269640000000    -0.434394   
O201     O      0.961820000000     0.185310000000     0.329230000000    -0.443742   
O202     O      0.549740000000     0.273230000000     0.327430000000    -0.435123   
O203     O      0.506670000000     0.230050000000     0.387070000000    -0.434444   
O204     O      0.504920000000     0.228480000000     0.269580000000    -0.434336   
O205     O      0.976850000000     0.259520000000     0.269690000000    -0.430502   
O206     O      0.975640000000     0.258120000000     0.387190000000    -0.431627   
O207     O      0.520210000000     0.302770000000     0.329110000000    -0.435059   
O208     O      0.932290000000     0.214840000000     0.327770000000    -0.433106   
O209     O      0.799730000000     0.023240000000     0.327770000000    -0.435158   
O210     O      0.711810000000     0.435320000000     0.329130000000    -0.43536    
O211     O      0.755170000000     0.478560000000     0.269720000000    -0.434388   
O212     O      0.756390000000     0.479970000000     0.387220000000    -0.434482   
O213     O      0.725350000000     0.008030000000     0.387060000000    -0.434158   
O214     O      0.727110000000     0.009610000000     0.269570000000    -0.433936   
O215     O      0.682280000000     0.464850000000     0.327450000000    -0.435144   
O216     O      0.770200000000     0.052770000000     0.329210000000    -0.435249   
O217     O      0.682300000000     0.214860000000     0.327500000000    -0.435096   
O218     O      0.770230000000     0.302780000000     0.329210000000    -0.435287   
O219     O      0.727080000000     0.259600000000     0.269610000000    -0.434492   
O220     O      0.725420000000     0.258060000000     0.387100000000    -0.434476   
O221     O      0.756450000000     0.229990000000     0.387180000000    -0.434456   
O222     O      0.755140000000     0.228560000000     0.269680000000    -0.434382   
O223     O      0.799760000000     0.273250000000     0.327730000000    -0.435367   
O224     O      0.711840000000     0.185330000000     0.329140000000    -0.435212   
O225     O      0.520390000000     0.464540000000     0.994420000000    -0.435236   
O226     O      0.932460000000     0.464540000000     0.995720000000    -0.433161   
O227     O      0.975780000000     0.464530000000     0.936330000000    -0.431162   
O228     O      0.977050000000     0.464500000000     0.053820000000    -0.428404   
O229     O      0.505120000000     0.023610000000     0.053770000000    -0.431791   
O230     O      0.506820000000     0.023640000000     0.936270000000    -0.433545   
O231     O      0.962000000000     0.023610000000     0.994100000000    -0.443213   
O232     O      0.549920000000     0.023610000000     0.995930000000    -0.434866   
O233     O      0.549610000000     0.273540000000     0.995990000000    -0.435411   
O234     O      0.961690000000     0.273550000000     0.994140000000    -0.443552   
O235     O      0.504800000000     0.273540000000     0.053810000000    -0.432086   
O236     O      0.506530000000     0.273590000000     0.936320000000    -0.433919   
O237     O      0.975490000000     0.214480000000     0.936290000000    -0.431267   
O238     O      0.976730000000     0.214430000000     0.053780000000    -0.428393   
O239     O      0.932160000000     0.214480000000     0.995680000000    -0.433194   
O240     O      0.520080000000     0.214480000000     0.994400000000    -0.435479   
O241     O      0.770380000000     0.464550000000     0.994180000000    -0.43549    
O242     O      0.682470000000     0.464550000000     0.996000000000    -0.435381   
O243     O      0.725550000000     0.464500000000     0.936340000000    -0.433929   
O244     O      0.727270000000     0.464550000000     0.053840000000    -0.432121   
O245     O      0.755340000000     0.023660000000     0.053770000000    -0.431872   
O246     O      0.756600000000     0.023610000000     0.936270000000    -0.433698   
O247     O      0.712000000000     0.023610000000     0.994370000000    -0.435144   
O248     O      0.799920000000     0.023610000000     0.995670000000    -0.435249   
O249     O      0.711690000000     0.273550000000     0.994410000000    -0.435368   
O250     O      0.799610000000     0.273550000000     0.995690000000    -0.435559   
O251     O      0.756290000000     0.273560000000     0.936310000000    -0.434094   
O252     O      0.755030000000     0.273590000000     0.053800000000    -0.432244   
O253     O      0.726960000000     0.214480000000     0.053820000000    -0.432099   
O254     O      0.725250000000     0.214450000000     0.936320000000    -0.433773   
O255     O      0.770080000000     0.214490000000     0.994150000000    -0.435387   
O256     O      0.682160000000     0.214490000000     0.995990000000    -0.435301   
O257     O      0.521050000000     0.009610000000     0.720410000000    -0.433976   
O258     O      0.520990000000     0.008130000000     0.602900000000    -0.433895   
O259     O      0.521000000000     0.052820000000     0.660900000000    -0.435225   
O260     O      0.521010000000     0.464900000000     0.662490000000    -0.43517    
O261     O      0.961940000000     0.435370000000     0.660960000000    -0.432517   
O262     O      0.961940000000     0.023290000000     0.662490000000    -0.432238   
O263     O      0.961890000000     0.480060000000     0.603030000000    -0.431811   
O264     O      0.961950000000     0.478570000000     0.720510000000    -0.431761   
O265     O      0.520990000000     0.214890000000     0.662490000000    -0.435277   
O266     O      0.520990000000     0.302810000000     0.660960000000    -0.435104   
O267     O      0.520990000000     0.259580000000     0.720480000000    -0.434156   
O268     O      0.521010000000     0.258130000000     0.602970000000    -0.434298   
O269     O      0.961910000000     0.230070000000     0.602970000000    -0.431718   
O270     O      0.961880000000     0.228540000000     0.720440000000    -0.431698   
O271     O      0.961920000000     0.273280000000     0.662500000000    -0.432278   
O272     O      0.961930000000     0.185360000000     0.660910000000    -0.432473   
O273     O      0.711070000000     0.023210000000     0.662500000000    -0.434892   
O274     O      0.711070000000     0.435290000000     0.660980000000    -0.435224   
O275     O      0.711080000000     0.478520000000     0.720520000000    -0.434183   
O276     O      0.711040000000     0.479970000000     0.603000000000    -0.434208   
O277     O      0.770140000000     0.008040000000     0.602950000000    -0.434306   
O278     O      0.770190000000     0.009550000000     0.720430000000    -0.434197   
O279     O      0.770130000000     0.464820000000     0.662520000000    -0.435382   
O280     O      0.770140000000     0.052750000000     0.660910000000    -0.435153   
O281     O      0.711050000000     0.185280000000     0.660950000000    -0.435048   
O282     O      0.711050000000     0.273200000000     0.662470000000    -0.435183   
O283     O      0.711070000000     0.229970000000     0.602950000000    -0.434237   
O284     O      0.711010000000     0.228490000000     0.720460000000    -0.434359   
O285     O      0.770110000000     0.259530000000     0.720490000000    -0.434521   
O286     O      0.770170000000     0.258040000000     0.603010000000    -0.434667   
O287     O      0.770120000000     0.302730000000     0.660950000000    -0.435334   
O288     O      0.770120000000     0.214810000000     0.662550000000    -0.435253   
O289     O      0.976950000000     0.509530000000     0.269700000000    -0.430573   
O290     O      0.975620000000     0.508100000000     0.387200000000    -0.431465   
O291     O      0.520250000000     0.552760000000     0.329160000000    -0.43536    
O292     O      0.932330000000     0.964850000000     0.327660000000    -0.43337    
O293     O      0.961860000000     0.935310000000     0.329160000000    -0.443489   
O294     O      0.549780000000     0.523230000000     0.327530000000    -0.435194   
O295     O      0.506660000000     0.980030000000     0.387050000000    -0.434381   
O296     O      0.505020000000     0.978490000000     0.269560000000    -0.434095   
O297     O      0.961830000000     0.685310000000     0.329210000000    -0.443606   
O298     O      0.549750000000     0.773230000000     0.327410000000    -0.435067   
O299     O      0.506680000000     0.730050000000     0.387060000000    -0.434439   
O300     O      0.504920000000     0.728470000000     0.269570000000    -0.434212   
O301     O      0.976850000000     0.759510000000     0.269680000000    -0.430584   
O302     O      0.975640000000     0.758110000000     0.387180000000    -0.43164    
O303     O      0.520220000000     0.802760000000     0.329090000000    -0.435328   
O304     O      0.932290000000     0.714840000000     0.327770000000    -0.433034   
O305     O      0.799730000000     0.523240000000     0.327800000000    -0.43549    
O306     O      0.711810000000     0.935320000000     0.329090000000    -0.435299   
O307     O      0.755180000000     0.978570000000     0.269680000000    -0.43421    
O308     O      0.756390000000     0.979970000000     0.387180000000    -0.434449   
O309     O      0.725350000000     0.508030000000     0.387100000000    -0.434468   
O310     O      0.727110000000     0.509600000000     0.269600000000    -0.434404   
O311     O      0.682280000000     0.964850000000     0.327410000000    -0.435427   
O312     O      0.770200000000     0.552770000000     0.329250000000    -0.435218   
O313     O      0.682300000000     0.714860000000     0.327500000000    -0.435325   
O314     O      0.770220000000     0.802790000000     0.329180000000    -0.435103   
O315     O      0.727060000000     0.759600000000     0.269600000000    -0.434321   
O316     O      0.725430000000     0.758070000000     0.387080000000    -0.434723   
O317     O      0.756460000000     0.730010000000     0.387160000000    -0.434512   
O318     O      0.755130000000     0.728560000000     0.269650000000    -0.434224   
O319     O      0.799750000000     0.773250000000     0.327690000000    -0.435261   
O320     O      0.711830000000     0.685330000000     0.329130000000    -0.435304   
O321     O      0.520390000000     0.964540000000     0.994350000000    -0.435096   
O322     O      0.932470000000     0.964540000000     0.995650000000    -0.433118   
O323     O      0.975780000000     0.964530000000     0.936250000000    -0.431052   
O324     O      0.977060000000     0.964500000000     0.053750000000    -0.428333   
O325     O      0.505120000000     0.523610000000     0.053840000000    -0.432104   
O326     O      0.506820000000     0.523640000000     0.936340000000    -0.433845   
O327     O      0.962000000000     0.523610000000     0.994180000000    -0.44373    
O328     O      0.549910000000     0.523610000000     0.996000000000    -0.43521    
O329     O      0.549590000000     0.773550000000     0.995970000000    -0.435269   
O330     O      0.961670000000     0.773550000000     0.994130000000    -0.443539   
O331     O      0.504780000000     0.773540000000     0.053800000000    -0.432182   
O332     O      0.506510000000     0.773590000000     0.936310000000    -0.43382    
O333     O      0.975470000000     0.714480000000     0.936270000000    -0.431149   
O334     O      0.976720000000     0.714430000000     0.053770000000    -0.428373   
O335     O      0.932140000000     0.714480000000     0.995660000000    -0.433212   
O336     O      0.520060000000     0.714480000000     0.994380000000    -0.435282   
O337     O      0.770390000000     0.964550000000     0.994140000000    -0.435325   
O338     O      0.682470000000     0.964550000000     0.995960000000    -0.435329   
O339     O      0.725560000000     0.964500000000     0.936310000000    -0.433867   
O340     O      0.727270000000     0.964550000000     0.053800000000    -0.432028   
O341     O      0.755330000000     0.523660000000     0.053810000000    -0.432136   
O342     O      0.756590000000     0.523610000000     0.936310000000    -0.433985   
O343     O      0.711990000000     0.523610000000     0.994410000000    -0.435374   
O344     O      0.799920000000     0.523610000000     0.995710000000    -0.435391   
O345     O      0.711670000000     0.773550000000     0.994390000000    -0.435371   
O346     O      0.799590000000     0.773550000000     0.995680000000    -0.435559   
O347     O      0.756270000000     0.773560000000     0.936290000000    -0.43416    
O348     O      0.755010000000     0.773590000000     0.053780000000    -0.43224    
O349     O      0.726940000000     0.714480000000     0.053800000000    -0.432114   
O350     O      0.725230000000     0.714460000000     0.936300000000    -0.433915   
O351     O      0.770060000000     0.714490000000     0.994130000000    -0.435399   
O352     O      0.682140000000     0.714490000000     0.995960000000    -0.435309   
O353     O      0.521050000000     0.509610000000     0.720480000000    -0.434274   
O354     O      0.520990000000     0.508130000000     0.602970000000    -0.434238   
O355     O      0.521000000000     0.552820000000     0.660970000000    -0.435141   
O356     O      0.521000000000     0.964890000000     0.662420000000    -0.435598   
O357     O      0.961940000000     0.935360000000     0.660890000000    -0.4324     
O358     O      0.961940000000     0.523280000000     0.662570000000    -0.432551   
O359     O      0.961880000000     0.980060000000     0.602950000000    -0.431527   
O360     O      0.961950000000     0.978570000000     0.720430000000    -0.431688   
O361     O      0.520980000000     0.714890000000     0.662500000000    -0.435348   
O362     O      0.520980000000     0.802810000000     0.660930000000    -0.43521    
O363     O      0.520980000000     0.759590000000     0.720480000000    -0.43421    
O364     O      0.521010000000     0.758120000000     0.602960000000    -0.434266   
O365     O      0.961910000000     0.730060000000     0.602950000000    -0.43172    
O366     O      0.961870000000     0.728550000000     0.720430000000    -0.43172    
O367     O      0.961920000000     0.773280000000     0.662470000000    -0.432545   
O368     O      0.961920000000     0.685350000000     0.660910000000    -0.432414   
O369     O      0.711070000000     0.523210000000     0.662530000000    -0.435187   
O370     O      0.711070000000     0.935290000000     0.660940000000    -0.435108   
O371     O      0.711080000000     0.978510000000     0.720480000000    -0.43401    
O372     O      0.711040000000     0.979970000000     0.602960000000    -0.43418    
O373     O      0.770140000000     0.508040000000     0.602990000000    -0.434571   
O374     O      0.770190000000     0.509560000000     0.720470000000    -0.43456    
O375     O      0.770140000000     0.964820000000     0.662480000000    -0.435466   
O376     O      0.770140000000     0.552750000000     0.660940000000    -0.435116   
O377     O      0.711060000000     0.685280000000     0.660930000000    -0.435147   
O378     O      0.711060000000     0.773210000000     0.662440000000    -0.43535    
O379     O      0.711080000000     0.729970000000     0.602930000000    -0.434351   
O380     O      0.711010000000     0.728500000000     0.720440000000    -0.434307   
O381     O      0.770110000000     0.759530000000     0.720470000000    -0.434573   
O382     O      0.770180000000     0.758040000000     0.602990000000    -0.434711   
O383     O      0.770120000000     0.802740000000     0.660920000000    -0.435479   
O384     O      0.770120000000     0.714820000000     0.662540000000    -0.435334   


