data_structure

_audit_creation_method RASPA-1.0
_audit_creation_date 2023-5-22
_audit_author_name 'Poobodin Mano'

_cell_length_a    32.5759
_cell_length_b    32.5721
_cell_length_c    43.563
_cell_angle_alpha 90
_cell_angle_beta  90
_cell_angle_gamma 90
_cell_volume      46223.2

_symmetry_cell_setting          triclinic
_symmetry_space_group_name_Hall 'P 1'
_symmetry_space_group_name_H-M  'P 1'
_symmetry_Int_Tables_number     1

_symmetry_equiv_pos_as_xyz 'x,y,z'

loop_
_atom_site_label
_atom_site_type_symbol
_atom_site_fract_x
_atom_site_fract_y
_atom_site_fract_z
_atom_site_charge
C1       C      0.250050000000     0.995430000000     0.493870000000     0.376756   
C2       C      0.406380000000     0.995440000000     0.993870000000     0.375863   
C3       C      0.328130000000     0.996140000000     0.435360000000     0.376142   
C4       C      0.328130000000     0.994730000000     0.052380000000     0.37539    
C5       C      0.250110000000     0.995430000000     0.243880000000     0.376744   
C6       C      0.406440000000     0.995440000000     0.243870000000     0.376211   
C7       C      0.328170000000     0.994720000000     0.185360000000     0.375932   
C8       C      0.328180000000     0.996140000000     0.302380000000     0.375859   
C9       C      0.995480000000     0.663190000000     0.437160000000     0.375904   
C10      C      0.995330000000     0.661980000000     0.054180000000     0.375566   
C11      C      0.995640000000     0.584320000000     0.495080000000     0.376387   
C12      C      0.995120000000     0.740670000000     0.496290000000     0.376779   
C13      C      0.995490000000     0.662600000000     0.187140000000     0.376225   
C14      C      0.995310000000     0.662570000000     0.304160000000     0.37577    
C15      C      0.995460000000     0.584320000000     0.245400000000     0.376282   
C16      C      0.995320000000     0.740660000000     0.245660000000     0.376636   
C17      C      0.662480000000     0.995510000000     0.435380000000     0.376028   
C18      C      0.662480000000     0.995340000000     0.052400000000     0.375447   
C19      C      0.740540000000     0.995420000000     0.493890000000     0.376618   
C20      C      0.584210000000     0.995430000000     0.493880000000     0.376412   
C21      C      0.662550000000     0.995510000000     0.185380000000     0.376066   
C22      C      0.662540000000     0.995330000000     0.302400000000     0.375899   
C23      C      0.740620000000     0.995420000000     0.243890000000     0.376558   
C24      C      0.584280000000     0.995430000000     0.243880000000     0.376316   
C25      C      0.073320000000     0.995410000000     0.493890000000     0.378186   
C26      C      0.917190000000     0.995400000000     0.493900000000     0.378591   
C27      C      0.995120000000     0.073450000000     0.492200000000     0.378366   
C28      C      0.995140000000     0.917370000000     0.495580000000     0.378451   
C29      C      0.073440000000     0.995420000000     0.243900000000     0.37848    
C30      C      0.917300000000     0.995400000000     0.243910000000     0.37869    
C31      C      0.995360000000     0.073480000000     0.243290000000     0.378694   
C32      C      0.995370000000     0.917330000000     0.244520000000     0.378807   
C33      C      0.995320000000     0.328840000000     0.433670000000     0.376037   
C34      C      0.995470000000     0.327610000000     0.050680000000     0.37547    
C35      C      0.995640000000     0.406490000000     0.492770000000     0.376339   
C36      C      0.995110000000     0.250150000000     0.491540000000     0.376719   
C37      C      0.995300000000     0.328240000000     0.183690000000     0.375975   
C38      C      0.995480000000     0.328220000000     0.300710000000     0.376125   
C39      C      0.995460000000     0.406500000000     0.242440000000     0.376394   
C40      C      0.995310000000     0.250160000000     0.242180000000     0.376699   
C41      C      0.958210000000     0.328790000000     0.383200000000    -0.00264903 
C42      C      0.995340000000     0.328820000000     0.399650000000    -0.0911031  
C43      C      0.032530000000     0.328660000000     0.383250000000    -0.000597585
C44      C      0.032590000000     0.328430000000     0.351170000000    -0.000383506
C45      C      0.995470000000     0.328380000000     0.334720000000    -0.0913194  
C46      C      0.958280000000     0.328580000000     0.351120000000    -0.00253692 
C47      C      0.032570000000     0.327590000000     0.101170000000    -0.000673741
C48      C      0.995450000000     0.327570000000     0.084710000000    -0.0904198  
C49      C      0.958260000000     0.327730000000     0.101110000000    -0.00273733 
C50      C      0.958190000000     0.327940000000     0.133200000000    -0.00241671 
C51      C      0.995310000000     0.328030000000     0.149660000000    -0.0911038  
C52      C      0.032500000000     0.327830000000     0.133260000000    -0.000405993
C53      C      0.021360000000     0.140130000000     0.222950000000     0.00207142 
C54      C      0.995300000000     0.118620000000     0.242950000000    -0.0921232  
C55      C      0.969210000000     0.140570000000     0.262650000000    -9.32688e-05
C56      C      0.968660000000     0.183470000000     0.261970000000    -0.0010864  
C57      C      0.995260000000     0.204990000000     0.242380000000    -0.0911541  
C58      C      0.021870000000     0.183050000000     0.223060000000     0.000961243
C59      C      0.968000000000     0.140460000000     0.010750000000     0.00219823 
C60      C      0.994670000000     0.118590000000     0.491430000000    -0.0920453  
C61      C      0.021290000000     0.140170000000     0.471910000000     0.00141127 
C62      C      0.021900000000     0.183120000000     0.472260000000     0.00117566 
C63      C      0.994860000000     0.204970000000     0.491320000000    -0.091424   
C64      C      0.967590000000     0.183340000000     0.010300000000     0.00253264 
C65      C      0.807520000000     0.022140000000     0.263260000000     0.000915455
C66      C      0.785780000000     0.995410000000     0.243900000000    -0.0912897  
C67      C      0.807520000000     0.968680000000     0.224550000000    -0.00111965 
C68      C      0.850430000000     0.969190000000     0.224150000000    -0.000289151
C69      C      0.872150000000     0.995400000000     0.243910000000    -0.0923831  
C70      C      0.850430000000     0.021610000000     0.263660000000     0.00197704 
C71      C      0.662520000000     0.958300000000     0.384960000000    -0.00256846 
C72      C      0.662520000000     0.995490000000     0.401360000000    -0.0912588  
C73      C      0.662550000000     0.032610000000     0.384900000000    -0.000490588
C74      C      0.662550000000     0.032550000000     0.352820000000    -0.000664254
C75      C      0.662550000000     0.995350000000     0.336420000000    -0.0911427  
C76      C      0.662550000000     0.958220000000     0.352870000000    -0.00270956 
C77      C      0.662560000000     0.958300000000     0.134960000000    -0.002428   
C78      C      0.662560000000     0.995500000000     0.151360000000    -0.091177   
C79      C      0.662570000000     0.032620000000     0.134900000000    -0.000297883
C80      C      0.662530000000     0.032550000000     0.102820000000    -0.000668421
C81      C      0.662520000000     0.995350000000     0.086420000000    -0.0904918  
C82      C      0.662550000000     0.958230000000     0.102870000000    -0.0026316  
C83      C      0.807420000000     0.022050000000     0.013320000000     0.00458712 
C84      C      0.785690000000     0.995410000000     0.493890000000    -0.0913491  
C85      C      0.807420000000     0.968770000000     0.474460000000    -0.00123058 
C86      C      0.850330000000     0.969290000000     0.474070000000    -0.000216834
C87      C      0.872050000000     0.995400000000     0.493900000000    -0.0924741  
C88      C      0.850340000000     0.021520000000     0.013720000000     0.0045483  
C89      C      0.958320000000     0.516860000000     0.244340000000    -0.00245817 
C90      C      0.995480000000     0.538820000000     0.244770000000    -0.0908919  
C91      C      0.032630000000     0.516860000000     0.244340000000    -0.000390327
C92      C      0.032630000000     0.473960000000     0.243510000000    -0.000339138
C93      C      0.995480000000     0.452000000000     0.243080000000    -0.0909722  
C94      C      0.958320000000     0.473960000000     0.243500000000    -0.00241306 
C95      C      0.968670000000     0.807340000000     0.225860000000    -0.00117184 
C96      C      0.995270000000     0.785820000000     0.245450000000    -0.0912358  
C97      C      0.021880000000     0.807770000000     0.264770000000     0.000848855
C98      C      0.021380000000     0.850700000000     0.264870000000     0.00207498 
C99      C      0.995320000000     0.872190000000     0.244870000000    -0.0925426  
C100     C      0.969220000000     0.850250000000     0.225180000000    -7.58751e-05
C101     C      0.958550000000     0.473960000000     0.993620000000    -0.00272443 
C102     C      0.995700000000     0.451990000000     0.493320000000    -0.0909908  
C103     C      0.032870000000     0.473950000000     0.493630000000    -0.000472029
C104     C      0.032870000000     0.516860000000     0.494230000000    -0.000391351
C105     C      0.995710000000     0.538820000000     0.494540000000    -0.0910579  
C106     C      0.958560000000     0.516850000000     0.994240000000    -0.00263707 
C107     C      0.032580000000     0.663210000000     0.386670000000    -0.000611031
C108     C      0.995470000000     0.663220000000     0.403130000000    -0.0911526  
C109     C      0.958270000000     0.663070000000     0.386730000000    -0.00275984 
C110     C      0.958210000000     0.662870000000     0.354640000000    -0.00260721 
C111     C      0.995320000000     0.662780000000     0.338190000000    -0.0911444  
C112     C      0.032510000000     0.662980000000     0.354590000000    -0.000667428
C113     C      0.032540000000     0.662160000000     0.104590000000    -0.000650596
C114     C      0.995340000000     0.662000000000     0.088190000000    -0.0904983  
C115     C      0.958220000000     0.662040000000     0.104640000000    -0.00262652 
C116     C      0.958290000000     0.662240000000     0.136720000000    -0.00234916 
C117     C      0.995480000000     0.662440000000     0.153120000000    -0.0912186  
C118     C      0.032600000000     0.662390000000     0.136670000000    -0.000197303
C119     C      0.021910000000     0.807700000000     0.015560000000     0.00472691 
C120     C      0.994880000000     0.785840000000     0.496490000000    -0.0915494  
C121     C      0.967620000000     0.807460000000     0.477500000000    -0.00123884 
C122     C      0.968030000000     0.850350000000     0.477040000000    -0.000350734
C123     C      0.994680000000     0.872230000000     0.496360000000    -0.0923968  
C124     C      0.021300000000     0.850650000000     0.015890000000     0.00399685 
C125     C      0.516810000000     0.958270000000     0.243960000000    -0.00246577 
C126     C      0.538780000000     0.995430000000     0.243870000000    -0.090935   
C127     C      0.516820000000     0.032590000000     0.243780000000    -0.000394495
C128     C      0.473910000000     0.032590000000     0.243790000000    -0.000352671
C129     C      0.451940000000     0.995430000000     0.243870000000    -0.0909533  
C130     C      0.473910000000     0.958280000000     0.243950000000    -0.00236653 
C131     C      0.183210000000     0.021800000000     0.224260000000     0.00113174 
C132     C      0.204950000000     0.995430000000     0.243890000000    -0.0912407  
C133     C      0.183220000000     0.969060000000     0.263520000000    -0.000981307
C134     C      0.140310000000     0.969590000000     0.263920000000    -0.000173456
C135     C      0.118580000000     0.995420000000     0.243900000000    -0.0919561  
C136     C      0.140300000000     0.021260000000     0.223870000000     0.00204031 
C137     C      0.473840000000     0.958280000000     0.494150000000    -0.0024724  
C138     C      0.451880000000     0.995430000000     0.993870000000    -0.0912359  
C139     C      0.473840000000     0.032590000000     0.993610000000    -0.000689221
C140     C      0.516750000000     0.032590000000     0.993610000000    -0.000591199
C141     C      0.538720000000     0.995430000000     0.993880000000    -0.091369   
C142     C      0.516750000000     0.958270000000     0.494150000000    -0.0024402  
C143     C      0.328690000000     0.959210000000     0.384900000000    -0.00268084 
C144     C      0.328130000000     0.996350000000     0.401340000000    -0.0912765  
C145     C      0.327570000000     0.033520000000     0.384930000000    -0.000328784
C146     C      0.327580000000     0.033530000000     0.352820000000    -0.000532333
C147     C      0.328150000000     0.996350000000     0.336400000000    -0.0910822  
C148     C      0.328700000000     0.959210000000     0.352840000000    -0.00280887 
C149     C      0.327560000000     0.957350000000     0.102810000000    -0.00253403 
C150     C      0.328120000000     0.994520000000     0.086400000000    -0.0904453  
C151     C      0.328670000000     0.031660000000     0.102840000000    -0.000818548
C152     C      0.328680000000     0.031650000000     0.134900000000    -0.000408552
C153     C      0.328140000000     0.994520000000     0.151340000000    -0.0911686  
C154     C      0.327570000000     0.957340000000     0.134930000000    -0.00230567 
C155     C      0.183140000000     0.022580000000     0.012900000000     0.00492663 
C156     C      0.204880000000     0.995430000000     0.493870000000    -0.0916991  
C157     C      0.183140000000     0.968280000000     0.474850000000    -0.000848267
C158     C      0.140230000000     0.968780000000     0.474460000000    -0.00103415 
C159     C      0.118490000000     0.995420000000     0.493880000000    -0.0918841  
C160     C      0.140230000000     0.022070000000     0.013300000000     0.00373381 
C161     C      0.250050000000     0.995430000000     0.993870000000     0.377313   
C162     C      0.406380000000     0.995440000000     0.493870000000     0.376247   
C163     C      0.328130000000     0.996140000000     0.935360000000     0.375921   
C164     C      0.328130000000     0.994730000000     0.552380000000     0.375905   
C165     C      0.250110000000     0.995430000000     0.743880000000     0.376748   
C166     C      0.406440000000     0.995440000000     0.743870000000     0.376199   
C167     C      0.328170000000     0.994720000000     0.685360000000     0.375872   
C168     C      0.328180000000     0.996140000000     0.802380000000     0.375867   
C169     C      0.995480000000     0.663190000000     0.937160000000     0.375744   
C170     C      0.995330000000     0.661980000000     0.554180000000     0.376092   
C171     C      0.995640000000     0.584320000000     0.995080000000     0.375995   
C172     C      0.995120000000     0.740670000000     0.996290000000     0.377331   
C173     C      0.995490000000     0.662600000000     0.687140000000     0.376166   
C174     C      0.995310000000     0.662570000000     0.804160000000     0.375779   
C175     C      0.995460000000     0.584320000000     0.745400000000     0.376271   
C176     C      0.995320000000     0.740660000000     0.745660000000     0.376647   
C177     C      0.662480000000     0.995510000000     0.935380000000     0.375774   
C178     C      0.662480000000     0.995340000000     0.552400000000     0.375931   
C179     C      0.740540000000     0.995420000000     0.993890000000     0.377197   
C180     C      0.584210000000     0.995430000000     0.993890000000     0.376028   
C181     C      0.662550000000     0.995510000000     0.685380000000     0.376008   
C182     C      0.662540000000     0.995330000000     0.802400000000     0.375909   
C183     C      0.740620000000     0.995420000000     0.743890000000     0.376556   
C184     C      0.584280000000     0.995430000000     0.743880000000     0.376304   
C185     C      0.073320000000     0.995410000000     0.993890000000     0.374931   
C186     C      0.917190000000     0.995400000000     0.993900000000     0.375331   
C187     C      0.995120000000     0.073450000000     0.992200000000     0.375085   
C188     C      0.995140000000     0.917370000000     0.995580000000     0.375213   
C189     C      0.073440000000     0.995420000000     0.743900000000     0.378485   
C190     C      0.917300000000     0.995400000000     0.743910000000     0.378708   
C191     C      0.995360000000     0.073480000000     0.743290000000     0.3787     
C192     C      0.995370000000     0.917330000000     0.744520000000     0.378801   
C193     C      0.995320000000     0.328840000000     0.933670000000     0.375851   
C194     C      0.995470000000     0.327610000000     0.550680000000     0.376023   
C195     C      0.995640000000     0.406490000000     0.992770000000     0.375957   
C196     C      0.995110000000     0.250150000000     0.991540000000     0.377281   
C197     C      0.995300000000     0.328240000000     0.683690000000     0.375915   
C198     C      0.995480000000     0.328220000000     0.800710000000     0.376135   
C199     C      0.995460000000     0.406500000000     0.742440000000     0.376382   
C200     C      0.995310000000     0.250160000000     0.742180000000     0.376703   
C201     C      0.958210000000     0.328790000000     0.883200000000    -0.00270034 
C202     C      0.995340000000     0.328820000000     0.899650000000    -0.0910821  
C203     C      0.032530000000     0.328660000000     0.883250000000    -0.000644841
C204     C      0.032590000000     0.328430000000     0.851170000000    -0.000392612
C205     C      0.995470000000     0.328380000000     0.834720000000    -0.0913585  
C206     C      0.958280000000     0.328580000000     0.851120000000    -0.00253973 
C207     C      0.032570000000     0.327590000000     0.601170000000    -0.000600054
C208     C      0.995450000000     0.327570000000     0.584710000000    -0.0911762  
C209     C      0.958260000000     0.327730000000     0.601110000000    -0.00265573 
C210     C      0.958190000000     0.327940000000     0.633200000000    -0.00267924 
C211     C      0.995310000000     0.328030000000     0.649660000000    -0.0911106  
C212     C      0.032500000000     0.327830000000     0.633260000000    -0.000667912
C213     C      0.021360000000     0.140130000000     0.722950000000     0.00204217 
C214     C      0.995300000000     0.118620000000     0.742950000000    -0.0921461  
C215     C      0.969210000000     0.140570000000     0.762650000000    -0.000112621
C216     C      0.968660000000     0.183470000000     0.761970000000    -0.00109774 
C217     C      0.995260000000     0.204990000000     0.742380000000    -0.0911973  
C218     C      0.021870000000     0.183050000000     0.723060000000     0.000942334
C219     C      0.968000000000     0.140460000000     0.510750000000    -0.000345806
C220     C      0.994670000000     0.118590000000     0.991430000000    -0.0944027  
C221     C      0.021290000000     0.140170000000     0.971910000000     0.00109572 
C222     C      0.021900000000     0.183120000000     0.972260000000     0.0018413  
C223     C      0.994860000000     0.204970000000     0.991320000000    -0.0952667  
C224     C      0.967590000000     0.183340000000     0.510300000000    -0.00115179 
C225     C      0.807520000000     0.022140000000     0.763260000000     0.000891328
C226     C      0.785780000000     0.995410000000     0.743900000000    -0.0913144  
C227     C      0.807520000000     0.968680000000     0.724550000000    -0.00118029 
C228     C      0.850430000000     0.969190000000     0.724160000000    -0.000256299
C229     C      0.872150000000     0.995400000000     0.743910000000    -0.0924415  
C230     C      0.850430000000     0.021610000000     0.763660000000     0.00197879 
C231     C      0.662520000000     0.958300000000     0.884960000000    -0.00262042 
C232     C      0.662520000000     0.995490000000     0.901360000000    -0.0912128  
C233     C      0.662550000000     0.032610000000     0.884900000000    -0.000549843
C234     C      0.662550000000     0.032550000000     0.852820000000    -0.000673986
C235     C      0.662550000000     0.995350000000     0.836420000000    -0.0911763  
C236     C      0.662550000000     0.958220000000     0.852870000000    -0.00271272 
C237     C      0.662560000000     0.958300000000     0.634960000000    -0.00268972 
C238     C      0.662560000000     0.995500000000     0.651360000000    -0.0911885  
C239     C      0.662570000000     0.032620000000     0.634900000000    -0.000549101
C240     C      0.662530000000     0.032550000000     0.602820000000    -0.000591169
C241     C      0.662520000000     0.995350000000     0.586420000000    -0.0912262  
C242     C      0.662550000000     0.958230000000     0.602870000000    -0.00257735 
C243     C      0.807420000000     0.022050000000     0.513320000000     0.000903751
C244     C      0.785690000000     0.995410000000     0.993890000000    -0.0952147  
C245     C      0.807420000000     0.968770000000     0.974470000000    -0.000465618
C246     C      0.850330000000     0.969290000000     0.974070000000    -0.000534857
C247     C      0.872050000000     0.995400000000     0.993900000000    -0.0947964  
C248     C      0.850340000000     0.021520000000     0.513720000000     0.00199717 
C249     C      0.958320000000     0.516860000000     0.744350000000    -0.0025068  
C250     C      0.995480000000     0.538820000000     0.744770000000    -0.0909558  
C251     C      0.032630000000     0.516860000000     0.744340000000    -0.000437415
C252     C      0.032630000000     0.473960000000     0.743510000000    -0.000386138
C253     C      0.995480000000     0.452000000000     0.743080000000    -0.0910389  
C254     C      0.958320000000     0.473960000000     0.743500000000    -0.00246167 
C255     C      0.968670000000     0.807340000000     0.725860000000    -0.00115911 
C256     C      0.995270000000     0.785820000000     0.745450000000    -0.0912961  
C257     C      0.021880000000     0.807770000000     0.764770000000     0.000853908
C258     C      0.021380000000     0.850700000000     0.764870000000     0.00204046 
C259     C      0.995320000000     0.872190000000     0.744870000000    -0.0925324  
C260     C      0.969220000000     0.850250000000     0.725170000000    -0.000175145
C261     C      0.958550000000     0.473960000000     0.493620000000    -0.00249749 
C262     C      0.995700000000     0.451990000000     0.993320000000    -0.091249   
C263     C      0.032870000000     0.473950000000     0.993630000000    -0.000703113
C264     C      0.032870000000     0.516860000000     0.994230000000    -0.000626462
C265     C      0.995710000000     0.538820000000     0.994540000000    -0.0913121  
C266     C      0.958560000000     0.516850000000     0.494240000000    -0.00240766 
C267     C      0.032580000000     0.663210000000     0.886670000000    -0.000654052
C268     C      0.995470000000     0.663220000000     0.903130000000    -0.091128   
C269     C      0.958270000000     0.663070000000     0.886730000000    -0.00279984 
C270     C      0.958210000000     0.662870000000     0.854640000000    -0.00261678 
C271     C      0.995320000000     0.662780000000     0.838190000000    -0.0911719  
C272     C      0.032510000000     0.662980000000     0.854590000000    -0.000681862
C273     C      0.032540000000     0.662160000000     0.604590000000    -0.000559577
C274     C      0.995340000000     0.662000000000     0.588190000000    -0.0912603  
C275     C      0.958220000000     0.662040000000     0.604640000000    -0.00256029 
C276     C      0.958290000000     0.662240000000     0.636730000000    -0.0026185  
C277     C      0.995480000000     0.662440000000     0.653120000000    -0.0912311  
C278     C      0.032600000000     0.662390000000     0.636670000000    -0.000448611
C279     C      0.021910000000     0.807700000000     0.515560000000     0.00103004 
C280     C      0.994880000000     0.785840000000     0.996490000000    -0.0953819  
C281     C      0.967620000000     0.807460000000     0.977500000000    -0.00050833 
C282     C      0.968030000000     0.850350000000     0.977030000000    -0.000696323
C283     C      0.994680000000     0.872230000000     0.996360000000    -0.094682   
C284     C      0.021300000000     0.850650000000     0.515890000000     0.00142424 
C285     C      0.516810000000     0.958270000000     0.743960000000    -0.00251404 
C286     C      0.538780000000     0.995430000000     0.743870000000    -0.0910001  
C287     C      0.516820000000     0.032590000000     0.743780000000    -0.000440952
C288     C      0.473910000000     0.032590000000     0.743790000000    -0.000399173
C289     C      0.451940000000     0.995430000000     0.743870000000    -0.0910185  
C290     C      0.473910000000     0.958280000000     0.743950000000    -0.00241487 
C291     C      0.183210000000     0.021800000000     0.724260000000     0.00111007 
C292     C      0.204950000000     0.995430000000     0.743890000000    -0.0912852  
C293     C      0.183220000000     0.969060000000     0.763520000000    -0.000993795
C294     C      0.140310000000     0.969590000000     0.763920000000    -0.000192988
C295     C      0.118580000000     0.995420000000     0.743900000000    -0.0919818  
C296     C      0.140300000000     0.021260000000     0.723870000000     0.00200925 
C297     C      0.473840000000     0.958280000000     0.994150000000    -0.00270117 
C298     C      0.451880000000     0.995430000000     0.493880000000    -0.0909789  
C299     C      0.473840000000     0.032590000000     0.493610000000    -0.000456805
C300     C      0.516750000000     0.032590000000     0.493610000000    -0.00035876 
C301     C      0.538720000000     0.995430000000     0.493880000000    -0.0911114  
C302     C      0.516750000000     0.958270000000     0.994150000000    -0.0026675  
C303     C      0.328690000000     0.959210000000     0.884900000000    -0.002726   
C304     C      0.328130000000     0.996350000000     0.901340000000    -0.0912443  
C305     C      0.327570000000     0.033520000000     0.884930000000    -0.000380903
C306     C      0.327580000000     0.033530000000     0.852810000000    -0.000546566
C307     C      0.328150000000     0.996350000000     0.836400000000    -0.0911117  
C308     C      0.328700000000     0.959210000000     0.852840000000    -0.00281773 
C309     C      0.327560000000     0.957350000000     0.602810000000    -0.00247128 
C310     C      0.328120000000     0.994520000000     0.586400000000    -0.0911927  
C311     C      0.328670000000     0.031660000000     0.602840000000    -0.000737944
C312     C      0.328680000000     0.031650000000     0.634900000000    -0.000664203
C313     C      0.328140000000     0.994520000000     0.651340000000    -0.0911776  
C314     C      0.327570000000     0.957340000000     0.634930000000    -0.00256989 
C315     C      0.183140000000     0.022580000000     0.512900000000     0.0012482  
C316     C      0.204880000000     0.995430000000     0.993870000000    -0.0955251  
C317     C      0.183140000000     0.968280000000     0.974850000000    -0.00017391 
C318     C      0.140230000000     0.968780000000     0.974460000000    -0.00134013 
C319     C      0.118490000000     0.995420000000     0.993880000000    -0.094224   
C320     C      0.140230000000     0.022070000000     0.513300000000     0.00115526 
H1       H      0.929000000000     0.328900000000     0.395070000000     0.0447498  
H2       H      0.061710000000     0.328660000000     0.395170000000     0.0445923  
H3       H      0.061810000000     0.328300000000     0.339300000000     0.0446924  
H4       H      0.929100000000     0.328560000000     0.339210000000     0.0445746  
H5       H      0.061790000000     0.327490000000     0.089300000000     0.0450295  
H6       H      0.929080000000     0.327730000000     0.089200000000     0.0450274  
H7       H      0.928980000000     0.328070000000     0.145070000000     0.0448572  
H8       H      0.061690000000     0.327850000000     0.145170000000     0.0445631  
H9       H      0.041830000000     0.123720000000     0.207660000000     0.0405663  
H10      H      0.948760000000     0.124510000000     0.278160000000     0.0404889  
H11      H      0.948010000000     0.199860000000     0.277140000000     0.0412893  
H12      H      0.042530000000     0.199100000000     0.207710000000     0.0413015  
H13      H      0.947130000000     0.124340000000     0.025920000000     0.0406699  
H14      H      0.042240000000     0.123830000000     0.456950000000     0.0419583  
H15      H      0.043060000000     0.199260000000     0.457340000000     0.0416374  
H16      H      0.946570000000     0.199620000000     0.025250000000     0.0413997  
H17      H      0.791300000000     0.042900000000     0.278450000000     0.0413231  
H18      H      0.791300000000     0.947920000000     0.209350000000     0.0412234  
H19      H      0.866660000000     0.948630000000     0.208830000000     0.0402847  
H20      H      0.866650000000     0.042180000000     0.278990000000     0.0404448  
H21      H      0.662510000000     0.929110000000     0.396870000000     0.0445303  
H22      H      0.662540000000     0.061830000000     0.396770000000     0.0445979  
H23      H      0.662560000000     0.061730000000     0.340900000000     0.0444998  
H24      H      0.662540000000     0.929010000000     0.341000000000     0.0447223  
H25      H      0.662560000000     0.929120000000     0.146870000000     0.0447341  
H26      H      0.662570000000     0.061840000000     0.146770000000     0.0447503  
H27      H      0.662530000000     0.061740000000     0.090900000000     0.0449268  
H28      H      0.662540000000     0.929010000000     0.091000000000     0.0451986  
H29      H      0.791210000000     0.042730000000     0.028570000000     0.041249   
H30      H      0.791200000000     0.948090000000     0.459220000000     0.0411125  
H31      H      0.866560000000     0.948800000000     0.458690000000     0.040042   
H32      H      0.866570000000     0.042010000000     0.029100000000     0.0403518  
H33      H      0.929120000000     0.532760000000     0.244630000000     0.0447126  
H34      H      0.061830000000     0.532760000000     0.244620000000     0.0446075  
H35      H      0.061830000000     0.458050000000     0.243220000000     0.0445897  
H36      H      0.929120000000     0.458060000000     0.243220000000     0.0446982  
H37      H      0.948020000000     0.790950000000     0.210690000000     0.0412875  
H38      H      0.042540000000     0.791720000000     0.280130000000     0.0411448  
H39      H      0.041850000000     0.867100000000     0.280160000000     0.040191   
H40      H      0.948780000000     0.866300000000     0.209660000000     0.0402456  
H41      H      0.929350000000     0.458070000000     0.993410000000     0.0442703  
H42      H      0.062060000000     0.458030000000     0.493420000000     0.0444822  
H43      H      0.062060000000     0.532780000000     0.494440000000     0.044466   
H44      H      0.929350000000     0.532740000000     0.994450000000     0.0442461  
H45      H      0.061800000000     0.663310000000     0.398540000000     0.0444948  
H46      H      0.929100000000     0.663080000000     0.398650000000     0.0445542  
H47      H      0.928990000000     0.662740000000     0.342770000000     0.044669   
H48      H      0.061700000000     0.662950000000     0.342670000000     0.0444003  
H49      H      0.061720000000     0.662170000000     0.092680000000     0.0450417  
H50      H      0.929010000000     0.661920000000     0.092770000000     0.045224   
H51      H      0.929110000000     0.662260000000     0.148640000000     0.0447228  
H52      H      0.061820000000     0.662520000000     0.148540000000     0.0448123  
H53      H      0.043060000000     0.791570000000     0.030480000000     0.0415861  
H54      H      0.946610000000     0.791170000000     0.462550000000     0.0412966  
H55      H      0.947170000000     0.866450000000     0.461850000000     0.0403055  
H56      H      0.042240000000     0.866990000000     0.030860000000     0.0417348  
H57      H      0.532720000000     0.929070000000     0.244030000000     0.0447041  
H58      H      0.532720000000     0.061790000000     0.243720000000     0.0446114  
H59      H      0.458000000000     0.061800000000     0.243720000000     0.0445957  
H60      H      0.458000000000     0.929070000000     0.244020000000     0.0446758  
H61      H      0.199420000000     0.042280000000     0.208850000000     0.0412383  
H62      H      0.199450000000     0.948580000000     0.278920000000     0.0410352  
H63      H      0.124090000000     0.949310000000     0.279460000000     0.0402839  
H64      H      0.124060000000     0.041540000000     0.208330000000     0.0405815  
H65      H      0.457940000000     0.929080000000     0.494360000000     0.0446117  
H66      H      0.457940000000     0.061790000000     0.993400000000     0.0441426  
H67      H      0.532660000000     0.061790000000     0.993400000000     0.0441207  
H68      H      0.532650000000     0.929070000000     0.494360000000     0.0446048  
H69      H      0.329110000000     0.929990000000     0.396760000000     0.0444731  
H70      H      0.327130000000     0.062700000000     0.396850000000     0.0447036  
H71      H      0.327150000000     0.062700000000     0.340890000000     0.0448069  
H72      H      0.329140000000     0.929990000000     0.340980000000     0.0445053  
H73      H      0.327120000000     0.928170000000     0.090890000000     0.0452901  
H74      H      0.329100000000     0.060880000000     0.090980000000     0.0448767  
H75      H      0.329120000000     0.060880000000     0.146760000000     0.0445034  
H76      H      0.327140000000     0.928170000000     0.146850000000     0.0449979  
H77      H      0.199340000000     0.043670000000     0.027840000000     0.0414835  
H78      H      0.199340000000     0.947190000000     0.459910000000     0.0413199  
H79      H      0.124020000000     0.947860000000     0.459390000000     0.0418385  
H80      H      0.124020000000     0.042980000000     0.028380000000     0.042226   
H81      H      0.929000000000     0.328900000000     0.895070000000     0.0446236  
H82      H      0.061710000000     0.328660000000     0.895170000000     0.044484   
H83      H      0.061810000000     0.328300000000     0.839300000000     0.044618   
H84      H      0.929100000000     0.328560000000     0.839200000000     0.0444944  
H85      H      0.061790000000     0.327490000000     0.589300000000     0.044512   
H86      H      0.929080000000     0.327730000000     0.589200000000     0.0445389  
H87      H      0.928980000000     0.328070000000     0.645070000000     0.0447023  
H88      H      0.061690000000     0.327850000000     0.645170000000     0.0443997  
H89      H      0.041830000000     0.123720000000     0.707660000000     0.0404961  
H90      H      0.948760000000     0.124510000000     0.778160000000     0.040458   
H91      H      0.948010000000     0.199860000000     0.777140000000     0.041242   
H92      H      0.042530000000     0.199100000000     0.707710000000     0.0412095  
H93      H      0.947130000000     0.124340000000     0.525930000000     0.0405989  
H94      H      0.042240000000     0.123830000000     0.956950000000     0.0417943  
H95      H      0.043060000000     0.199260000000     0.957340000000     0.0412438  
H96      H      0.946570000000     0.199620000000     0.525250000000     0.0413823  
H97      H      0.791300000000     0.042900000000     0.778450000000     0.0412805  
H98      H      0.791300000000     0.947920000000     0.709350000000     0.0411317  
H99      H      0.866660000000     0.948630000000     0.708830000000     0.0401813  
H100     H      0.866650000000     0.042180000000     0.778990000000     0.0404101  
H101     H      0.662510000000     0.929110000000     0.896870000000     0.0444324  
H102     H      0.662540000000     0.061830000000     0.896770000000     0.0444729  
H103     H      0.662560000000     0.061730000000     0.840900000000     0.0444184  
H104     H      0.662540000000     0.929010000000     0.841000000000     0.0446518  
H105     H      0.662560000000     0.929120000000     0.646870000000     0.0445641  
H106     H      0.662570000000     0.061840000000     0.646770000000     0.0445965  
H107     H      0.662530000000     0.061740000000     0.590900000000     0.044445   
H108     H      0.662540000000     0.929010000000     0.591000000000     0.044674   
H109     H      0.791210000000     0.042730000000     0.528570000000     0.0412547  
H110     H      0.791200000000     0.948090000000     0.959220000000     0.0407295  
H111     H      0.866560000000     0.948800000000     0.958690000000     0.0399641  
H112     H      0.866570000000     0.042010000000     0.529100000000     0.0403027  
H113     H      0.929120000000     0.532760000000     0.744630000000     0.0446075  
H114     H      0.061830000000     0.532760000000     0.744620000000     0.0445023  
H115     H      0.061830000000     0.458050000000     0.743220000000     0.0444829  
H116     H      0.929120000000     0.458060000000     0.743220000000     0.0445915  
H117     H      0.948020000000     0.790950000000     0.710690000000     0.0411765  
H118     H      0.042540000000     0.791720000000     0.780130000000     0.0410995  
H119     H      0.041850000000     0.867100000000     0.780160000000     0.0401707  
H120     H      0.948780000000     0.866300000000     0.709660000000     0.0401828  
H121     H      0.929350000000     0.458070000000     0.493410000000     0.0446636  
H122     H      0.062060000000     0.458030000000     0.993420000000     0.0440938  
H123     H      0.062060000000     0.532780000000     0.994440000000     0.0440739  
H124     H      0.929350000000     0.532740000000     0.494450000000     0.0446331  
H125     H      0.061800000000     0.663310000000     0.898540000000     0.0443792  
H126     H      0.929100000000     0.663080000000     0.898650000000     0.0444518  
H127     H      0.928990000000     0.662740000000     0.842770000000     0.0445992  
H128     H      0.061700000000     0.662950000000     0.842670000000     0.0443249  
H129     H      0.061720000000     0.662170000000     0.592670000000     0.0445481  
H130     H      0.929010000000     0.661920000000     0.592770000000     0.0446995  
H131     H      0.929110000000     0.662260000000     0.648640000000     0.0445573  
H132     H      0.061820000000     0.662520000000     0.648550000000     0.0446565  
H133     H      0.043060000000     0.791570000000     0.530480000000     0.0415437  
H134     H      0.946610000000     0.791170000000     0.962550000000     0.0409195  
H135     H      0.947170000000     0.866450000000     0.961850000000     0.0402293  
H136     H      0.042240000000     0.866990000000     0.530860000000     0.0415744  
H137     H      0.532720000000     0.929070000000     0.744030000000     0.0445984  
H138     H      0.532720000000     0.061790000000     0.743720000000     0.044506   
H139     H      0.458000000000     0.061800000000     0.743720000000     0.0444902  
H140     H      0.458000000000     0.929070000000     0.744020000000     0.0445701  
H141     H      0.199420000000     0.042280000000     0.708850000000     0.041148   
H142     H      0.199450000000     0.948580000000     0.778920000000     0.0409941  
H143     H      0.124090000000     0.949310000000     0.779460000000     0.0402589  
H144     H      0.124060000000     0.041540000000     0.708330000000     0.0405108  
H145     H      0.457940000000     0.929080000000     0.994360000000     0.0442213  
H146     H      0.457940000000     0.061790000000     0.493400000000     0.0445329  
H147     H      0.532660000000     0.061790000000     0.493400000000     0.0445132  
H148     H      0.532650000000     0.929070000000     0.994370000000     0.0442163  
H149     H      0.329110000000     0.929990000000     0.896760000000     0.0443682  
H150     H      0.327130000000     0.062700000000     0.896850000000     0.044581   
H151     H      0.327150000000     0.062700000000     0.840890000000     0.0447298  
H152     H      0.329140000000     0.929990000000     0.840980000000     0.0444332  
H153     H      0.327120000000     0.928170000000     0.590890000000     0.0447733  
H154     H      0.329100000000     0.060880000000     0.590980000000     0.0443836  
H155     H      0.329120000000     0.060880000000     0.646760000000     0.0443471  
H156     H      0.327140000000     0.928170000000     0.646850000000     0.0448321  
H157     H      0.199340000000     0.043670000000     0.527840000000     0.0414392  
H158     H      0.199340000000     0.947190000000     0.959910000000     0.0409289  
H159     H      0.124020000000     0.947860000000     0.959390000000     0.0416784  
H160     H      0.124020000000     0.042980000000     0.528380000000     0.042084   
Ni1      Ni     0.328140000000     0.032080000000     0.494160000000     0.996152   
Ni2      Ni     0.328140000000     0.958790000000     0.493580000000     0.991968   
Ni3      Ni     0.328190000000     0.032080000000     0.243570000000     0.996066   
Ni4      Ni     0.328190000000     0.958790000000     0.244170000000     0.991944   
Ni5      Ni     0.032050000000     0.662690000000     0.495790000000     0.995194   
Ni6      Ni     0.958770000000     0.662450000000     0.995570000000     0.989772   
Ni7      Ni     0.032040000000     0.662600000000     0.245750000000     0.995908   
Ni8      Ni     0.958760000000     0.662530000000     0.245520000000     0.992266   
Ni9      Ni     0.662460000000     0.032070000000     0.494000000000     0.996049   
Ni10     Ni     0.662450000000     0.958780000000     0.993780000000     0.989113   
Ni11     Ni     0.662530000000     0.032070000000     0.244000000000     0.995955   
Ni12     Ni     0.662530000000     0.958780000000     0.243770000000     0.992034   
Ni13     Ni     0.995250000000     0.994170000000     0.466470000000     0.991099   
Ni14     Ni     0.995250000000     0.996650000000     0.021320000000     0.993169   
Ni15     Ni     0.995370000000     0.995030000000     0.216460000000     0.991641   
Ni16     Ni     0.995370000000     0.995790000000     0.271360000000     0.991413   
Ni17     Ni     0.958760000000     0.328360000000     0.492280000000     0.992831   
Ni18     Ni     0.032040000000     0.328110000000     0.992050000000     0.992226   
Ni19     Ni     0.958750000000     0.328280000000     0.242320000000     0.992286   
Ni20     Ni     0.032030000000     0.328210000000     0.242090000000     0.995972   
Ni21     Ni     0.328140000000     0.032080000000     0.994160000000     0.993156   
Ni22     Ni     0.328140000000     0.958790000000     0.993580000000     0.989035   
Ni23     Ni     0.328190000000     0.032080000000     0.743570000000     0.995974   
Ni24     Ni     0.328190000000     0.958790000000     0.744170000000     0.991847   
Ni25     Ni     0.032050000000     0.662690000000     0.995790000000     0.991996   
Ni26     Ni     0.958770000000     0.662450000000     0.495570000000     0.992659   
Ni27     Ni     0.032040000000     0.662600000000     0.745750000000     0.995816   
Ni28     Ni     0.958760000000     0.662530000000     0.745520000000     0.992171   
Ni29     Ni     0.662460000000     0.032070000000     0.994000000000     0.993038   
Ni30     Ni     0.662450000000     0.958780000000     0.493770000000     0.992029   
Ni31     Ni     0.662530000000     0.032070000000     0.744000000000     0.995863   
Ni32     Ni     0.662530000000     0.958780000000     0.743770000000     0.991936   
Ni33     Ni     0.995250000000     0.994170000000     0.966470000000     0.987428   
Ni34     Ni     0.995250000000     0.996650000000     0.521320000000     0.991135   
Ni35     Ni     0.995370000000     0.995030000000     0.716460000000     0.991536   
Ni36     Ni     0.995370000000     0.995790000000     0.771360000000     0.991451   
Ni37     Ni     0.958760000000     0.328360000000     0.992270000000     0.989831   
Ni38     Ni     0.032040000000     0.328110000000     0.492050000000     0.995164   
Ni39     Ni     0.958750000000     0.328280000000     0.742320000000     0.992189   
Ni40     Ni     0.032030000000     0.328210000000     0.742090000000     0.99588    
O1       O      0.269360000000     0.029670000000     0.994790000000    -0.432801   
O2       O      0.386920000000     0.029640000000     0.493710000000    -0.43305    
O3       O      0.327560000000     0.030180000000     0.450130000000    -0.432214   
O4       O      0.328710000000     0.029080000000     0.038050000000    -0.431282   
O5       O      0.327560000000     0.960680000000     0.037610000000    -0.430838   
O6       O      0.328720000000     0.961790000000     0.449690000000    -0.435225   
O7       O      0.386920000000     0.961230000000     0.994030000000    -0.434477   
O8       O      0.269360000000     0.961200000000     0.492950000000    -0.433441   
O9       O      0.269410000000     0.029670000000     0.242940000000    -0.431845   
O10      O      0.386980000000     0.029640000000     0.244020000000    -0.432881   
O11      O      0.328760000000     0.029080000000     0.199690000000    -0.433813   
O12      O      0.327610000000     0.030190000000     0.287610000000    -0.431923   
O13      O      0.328780000000     0.961790000000     0.288050000000    -0.435253   
O14      O      0.327600000000     0.960680000000     0.200130000000    -0.4333     
O15      O      0.386980000000     0.961230000000     0.243710000000    -0.434144   
O16      O      0.269410000000     0.961200000000     0.244810000000    -0.433276   
O17      O      0.029650000000     0.663730000000     0.451780000000    -0.432249   
O18      O      0.029550000000     0.661650000000     0.039690000000    -0.431004   
O19      O      0.029790000000     0.603880000000     0.494960000000    -0.432686   
O20      O      0.029440000000     0.721490000000     0.996830000000    -0.432395   
O21      O      0.960970000000     0.721230000000     0.495370000000    -0.433735   
O22      O      0.961400000000     0.603680000000     0.995570000000    -0.434849   
O23      O      0.961150000000     0.662510000000     0.039580000000    -0.43122    
O24      O      0.961270000000     0.662420000000     0.451650000000    -0.435022   
O25      O      0.029660000000     0.663210000000     0.201750000000    -0.432389   
O26      O      0.029530000000     0.662000000000     0.289670000000    -0.433514   
O27      O      0.029650000000     0.603800000000     0.245230000000    -0.432825   
O28      O      0.029580000000     0.721390000000     0.246420000000    -0.431781   
O29      O      0.961100000000     0.721320000000     0.244930000000    -0.433309   
O30      O      0.961250000000     0.603750000000     0.245840000000    -0.434418   
O31      O      0.961140000000     0.663050000000     0.289540000000    -0.433631   
O32      O      0.961270000000     0.662030000000     0.201620000000    -0.435126   
O33      O      0.663030000000     0.029680000000     0.449990000000    -0.432441   
O34      O      0.661900000000     0.029560000000     0.037910000000    -0.431127   
O35      O      0.721240000000     0.029660000000     0.494640000000    -0.431965   
O36      O      0.603670000000     0.029630000000     0.993570000000    -0.433129   
O37      O      0.603670000000     0.961230000000     0.494200000000    -0.434408   
O38      O      0.721230000000     0.961170000000     0.993140000000    -0.433731   
O39      O      0.663020000000     0.961160000000     0.037790000000    -0.431116   
O40      O      0.661900000000     0.961280000000     0.449870000000    -0.435067   
O41      O      0.663100000000     0.029690000000     0.199990000000    -0.432272   
O42      O      0.661980000000     0.029560000000     0.287910000000    -0.433586   
O43      O      0.721320000000     0.029660000000     0.244640000000    -0.431814   
O44      O      0.603740000000     0.029630000000     0.243570000000    -0.432875   
O45      O      0.603740000000     0.961230000000     0.244190000000    -0.434239   
O46      O      0.721310000000     0.961170000000     0.243150000000    -0.433192   
O47      O      0.663080000000     0.961160000000     0.287790000000    -0.433667   
O48      O      0.661980000000     0.961290000000     0.199870000000    -0.435054   
O49      O      0.054020000000     0.992810000000     0.468340000000    -0.432203   
O50      O      0.936470000000     0.995090000000     0.468270000000    -0.43358    
O51      O      0.996650000000     0.053130000000     0.467030000000    -0.430994   
O52      O      0.993780000000     0.935630000000     0.469580000000    -0.435092   
O53      O      0.996660000000     0.937680000000     0.020760000000    -0.429659   
O54      O      0.993770000000     0.055180000000     0.018200000000    -0.43106    
O55      O      0.936480000000     0.995710000000     0.019520000000    -0.431186   
O56      O      0.054020000000     0.998010000000     0.019430000000    -0.429892   
O57      O      0.054150000000     0.995350000000     0.218280000000    -0.432419   
O58      O      0.936580000000     0.994750000000     0.218290000000    -0.433687   
O59      O      0.995660000000     0.053840000000     0.217820000000    -0.432588   
O60      O      0.995070000000     0.936270000000     0.218750000000    -0.433631   
O61      O      0.995670000000     0.936980000000     0.269990000000    -0.434053   
O62      O      0.995070000000     0.054550000000     0.269060000000    -0.432249   
O63      O      0.936590000000     0.996050000000     0.269530000000    -0.433972   
O64      O      0.054160000000     0.995470000000     0.269530000000    -0.432121   
O65      O      0.961140000000     0.328310000000     0.448270000000    -0.433849   
O66      O      0.961260000000     0.328380000000     0.036190000000    -0.432462   
O67      O      0.961390000000     0.387130000000     0.492290000000    -0.434615   
O68      O      0.960950000000     0.269580000000     0.992460000000    -0.434472   
O69      O      0.029430000000     0.269320000000     0.491000000000    -0.431696   
O70      O      0.029780000000     0.386930000000     0.992890000000    -0.432833   
O71      O      0.029640000000     0.327060000000     0.036070000000    -0.429583   
O72      O      0.029540000000     0.329170000000     0.448160000000    -0.433698   
O73      O      0.961130000000     0.327770000000     0.198300000000    -0.433632   
O74      O      0.961260000000     0.328780000000     0.286220000000    -0.43513    
O75      O      0.961250000000     0.387070000000     0.242000000000    -0.434361   
O76      O      0.961090000000     0.269500000000     0.242910000000    -0.433381   
O77      O      0.029570000000     0.269420000000     0.241420000000    -0.431817   
O78      O      0.029640000000     0.387010000000     0.242610000000    -0.432882   
O79      O      0.029650000000     0.327610000000     0.286100000000    -0.432322   
O80      O      0.029520000000     0.328810000000     0.198180000000    -0.433591   
O81      O      0.269360000000     0.029670000000     0.494790000000    -0.432009   
O82      O      0.386920000000     0.029640000000     0.993710000000    -0.433208   
O83      O      0.327560000000     0.030180000000     0.950130000000    -0.431774   
O84      O      0.328710000000     0.029080000000     0.538050000000    -0.433873   
O85      O      0.327560000000     0.960680000000     0.537610000000    -0.433465   
O86      O      0.328720000000     0.961790000000     0.949690000000    -0.434759   
O87      O      0.386920000000     0.961230000000     0.494030000000    -0.434311   
O88      O      0.269360000000     0.961200000000     0.992950000000    -0.433938   
O89      O      0.269410000000     0.029670000000     0.742940000000    -0.43188    
O90      O      0.386980000000     0.029640000000     0.744020000000    -0.432938   
O91      O      0.328760000000     0.029080000000     0.699690000000    -0.433881   
O92      O      0.327610000000     0.030190000000     0.787610000000    -0.431949   
O93      O      0.328780000000     0.961790000000     0.788050000000    -0.435277   
O94      O      0.327600000000     0.960680000000     0.700130000000    -0.433375   
O95      O      0.386980000000     0.961230000000     0.743710000000    -0.434202   
O96      O      0.269410000000     0.961200000000     0.744810000000    -0.433319   
O97      O      0.029650000000     0.663730000000     0.951770000000    -0.431737   
O98      O      0.029550000000     0.661650000000     0.539690000000    -0.433636   
O99      O      0.029790000000     0.603880000000     0.994960000000    -0.432821   
O100     O      0.029440000000     0.721490000000     0.496830000000    -0.431628   
O101     O      0.960970000000     0.721230000000     0.995370000000    -0.434225   
O102     O      0.961400000000     0.603680000000     0.495570000000    -0.434677   
O103     O      0.961150000000     0.662510000000     0.539580000000    -0.433852   
O104     O      0.961270000000     0.662420000000     0.951650000000    -0.434586   
O105     O      0.029660000000     0.663210000000     0.701750000000    -0.432462   
O106     O      0.029530000000     0.662000000000     0.789670000000    -0.433539   
O107     O      0.029650000000     0.603800000000     0.745230000000    -0.432882   
O108     O      0.029580000000     0.721390000000     0.746420000000    -0.431824   
O109     O      0.961100000000     0.721320000000     0.744930000000    -0.433348   
O110     O      0.961250000000     0.603750000000     0.745840000000    -0.434475   
O111     O      0.961140000000     0.663050000000     0.789540000000    -0.433654   
O112     O      0.961270000000     0.662030000000     0.701620000000    -0.435199   
O113     O      0.663030000000     0.029680000000     0.949990000000    -0.43197    
O114     O      0.661900000000     0.029560000000     0.537910000000    -0.433681   
O115     O      0.721240000000     0.029660000000     0.994630000000    -0.432775   
O116     O      0.603670000000     0.029630000000     0.493570000000    -0.432972   
O117     O      0.603670000000     0.961230000000     0.994200000000    -0.434577   
O118     O      0.721230000000     0.961170000000     0.493140000000    -0.433241   
O119     O      0.663020000000     0.961160000000     0.537790000000    -0.433619   
O120     O      0.661900000000     0.961280000000     0.949870000000    -0.434468   
O121     O      0.663100000000     0.029690000000     0.699990000000    -0.43234    
O122     O      0.661980000000     0.029560000000     0.787910000000    -0.433613   
O123     O      0.721320000000     0.029660000000     0.744640000000    -0.431852   
O124     O      0.603740000000     0.029630000000     0.743570000000    -0.432932   
O125     O      0.603740000000     0.961230000000     0.744190000000    -0.434297   
O126     O      0.721310000000     0.961170000000     0.743150000000    -0.433227   
O127     O      0.663080000000     0.961160000000     0.787790000000    -0.433691   
O128     O      0.661980000000     0.961290000000     0.699870000000    -0.435129   
O129     O      0.054020000000     0.992810000000     0.968340000000    -0.431361   
O130     O      0.936470000000     0.995090000000     0.968270000000    -0.432743   
O131     O      0.996650000000     0.053130000000     0.967030000000    -0.43019    
O132     O      0.993780000000     0.935630000000     0.969580000000    -0.43421    
O133     O      0.996660000000     0.937680000000     0.520760000000    -0.432421   
O134     O      0.993770000000     0.055180000000     0.518200000000    -0.433714   
O135     O      0.936480000000     0.995710000000     0.519520000000    -0.43391    
O136     O      0.054020000000     0.998010000000     0.519430000000    -0.432592   
O137     O      0.054150000000     0.995350000000     0.718280000000    -0.432462   
O138     O      0.936580000000     0.994750000000     0.718290000000    -0.433735   
O139     O      0.995660000000     0.053840000000     0.717820000000    -0.432625   
O140     O      0.995070000000     0.936270000000     0.718750000000    -0.433676   
O141     O      0.995670000000     0.936980000000     0.769990000000    -0.434057   
O142     O      0.995070000000     0.054550000000     0.769060000000    -0.43226    
O143     O      0.936590000000     0.996050000000     0.769530000000    -0.433986   
O144     O      0.054160000000     0.995470000000     0.769530000000    -0.432131   
O145     O      0.961140000000     0.328310000000     0.948270000000    -0.433532   
O146     O      0.961260000000     0.328380000000     0.536190000000    -0.435183   
O147     O      0.961390000000     0.387130000000     0.992290000000    -0.434766   
O148     O      0.960950000000     0.269580000000     0.492460000000    -0.433671   
O149     O      0.029430000000     0.269320000000     0.991000000000    -0.432202   
O150     O      0.029780000000     0.386930000000     0.492890000000    -0.432661   
O151     O      0.029640000000     0.327060000000     0.536070000000    -0.432219   
O152     O      0.029540000000     0.329170000000     0.948160000000    -0.433255   
O153     O      0.961130000000     0.327770000000     0.698300000000    -0.433703   
O154     O      0.961260000000     0.328780000000     0.786220000000    -0.435159   
O155     O      0.961250000000     0.387070000000     0.742000000000    -0.43442    
O156     O      0.961090000000     0.269500000000     0.742910000000    -0.433422   
O157     O      0.029570000000     0.269420000000     0.741420000000    -0.431852   
O158     O      0.029640000000     0.387010000000     0.742610000000    -0.432939   
O159     O      0.029650000000     0.327610000000     0.786100000000    -0.432348   
O160     O      0.029520000000     0.328810000000     0.698180000000    -0.433662   


