data_structure

_audit_creation_method RASPA-1.0
_audit_creation_date 2023-5-22
_audit_author_name 'Poobodin Mano'

_cell_length_a    43.5571
_cell_length_b    43.5575
_cell_length_c    43.468
_cell_angle_alpha 90
_cell_angle_beta  90
_cell_angle_gamma 90
_cell_volume      82469.2

_symmetry_cell_setting          triclinic
_symmetry_space_group_name_Hall 'P 1'
_symmetry_space_group_name_H-M  'P 1'
_symmetry_Int_Tables_number     1

_symmetry_equiv_pos_as_xyz 'x,y,z'

loop_
_atom_site_label
_atom_site_type_symbol
_atom_site_fract_x
_atom_site_fract_y
_atom_site_fract_z
_atom_site_charge
C1       C      0.993960000000     0.493970000000     0.178770000000     0.372967   
C2       C      0.993960000000     0.993940000000     0.061620000000     0.372189   
C3       C      0.493890000000     0.435450000000     0.120280000000     0.378554   
C4       C      0.494030000000     0.052470000000     0.120260000000     0.377422   
C5       C      0.993960000000     0.243950000000     0.178770000000     0.372983   
C6       C      0.993960000000     0.243960000000     0.061620000000     0.37292    
C7       C      0.993900000000     0.185450000000     0.120260000000     0.372728   
C8       C      0.994020000000     0.302470000000     0.120270000000     0.372505   
C9       C      0.244010000000     0.052460000000     0.120250000000     0.37753    
C10      C      0.243880000000     0.435440000000     0.120270000000     0.378445   
C11      C      0.243950000000     0.993970000000     0.178760000000     0.380375   
C12      C      0.243950000000     0.993940000000     0.061610000000     0.378053   
C13      C      0.243880000000     0.185440000000     0.120250000000     0.378572   
C14      C      0.244010000000     0.302460000000     0.120270000000     0.378514   
C15      C      0.243950000000     0.243960000000     0.061610000000     0.378804   
C16      C      0.243940000000     0.243940000000     0.178760000000     0.379317   
C17      C      0.994520000000     0.435440000000     0.869690000000     0.372508   
C18      C      0.993450000000     0.052450000000     0.869700000000     0.371515   
C19      C      0.993980000000     0.993930000000     0.928340000000     0.372281   
C20      C      0.993990000000     0.993960000000     0.811190000000     0.374146   
C21      C      0.994520000000     0.302450000000     0.869690000000     0.37261    
C22      C      0.993450000000     0.185440000000     0.869700000000     0.372668   
C23      C      0.993980000000     0.243950000000     0.928340000000     0.373076   
C24      C      0.993990000000     0.243940000000     0.811190000000     0.373122   
C25      C      0.243980000000     0.493960000000     0.811180000000     0.379053   
C26      C      0.243960000000     0.493930000000     0.928330000000     0.378847   
C27      C      0.243910000000     0.052450000000     0.869690000000     0.377523   
C28      C      0.244040000000     0.435430000000     0.869670000000     0.37816    
C29      C      0.243990000000     0.243940000000     0.811180000000     0.379362   
C30      C      0.243960000000     0.243950000000     0.928340000000     0.378826   
C31      C      0.244040000000     0.185430000000     0.869690000000     0.37859    
C32      C      0.243910000000     0.302450000000     0.869680000000     0.378521   
C33      C      0.435460000000     0.493960000000     0.369690000000     0.378449   
C34      C      0.052480000000     0.494090000000     0.369690000000     0.377522   
C35      C      0.993980000000     0.494040000000     0.428340000000     0.378023   
C36      C      0.993970000000     0.494020000000     0.311190000000     0.380112   
C37      C      0.993970000000     0.243940000000     0.311180000000     0.379949   
C38      C      0.993980000000     0.243940000000     0.428340000000     0.378077   
C39      C      0.052480000000     0.244000000000     0.369690000000     0.377482   
C40      C      0.435460000000     0.243880000000     0.369690000000     0.378441   
C41      C      0.243980000000     0.994040000000     0.428330000000     0.37294    
C42      C      0.243970000000     0.994020000000     0.311180000000     0.372937   
C43      C      0.302480000000     0.994090000000     0.369680000000     0.372534   
C44      C      0.185460000000     0.993960000000     0.369690000000     0.372654   
C45      C      0.302480000000     0.244000000000     0.369680000000     0.378523   
C46      C      0.185460000000     0.243870000000     0.369690000000     0.378861   
C47      C      0.243970000000     0.243940000000     0.311180000000     0.379451   
C48      C      0.243980000000     0.243940000000     0.428330000000     0.378817   
C49      C      0.994010000000     0.994030000000     0.561610000000     0.372426   
C50      C      0.994010000000     0.994010000000     0.678770000000     0.37392    
C51      C      0.435500000000     0.994080000000     0.620270000000     0.372578   
C52      C      0.052520000000     0.993960000000     0.620260000000     0.371563   
C53      C      0.052520000000     0.244470000000     0.620260000000     0.377695   
C54      C      0.435500000000     0.243400000000     0.620260000000     0.378248   
C55      C      0.994010000000     0.243930000000     0.678770000000     0.3802     
C56      C      0.494010000000     0.243930000000     0.561610000000     0.378819   
C57      C      0.244010000000     0.494000000000     0.678760000000     0.378964   
C58      C      0.244010000000     0.494030000000     0.561610000000     0.378751   
C59      C      0.185500000000     0.494090000000     0.620260000000     0.378543   
C60      C      0.302520000000     0.493950000000     0.620260000000     0.378482   
C61      C      0.244010000000     0.243930000000     0.678760000000     0.379264   
C62      C      0.244010000000     0.243930000000     0.561610000000     0.378935   
C63      C      0.185500000000     0.244470000000     0.620250000000     0.378692   
C64      C      0.302520000000     0.243400000000     0.620250000000     0.378431   
C65      C      0.385040000000     0.271010000000     0.619860000000    -0.00280426 
C66      C      0.401480000000     0.243240000000     0.620270000000    -0.0893355  
C67      C      0.385070000000     0.215440000000     0.620690000000    -0.00253328 
C68      C      0.352960000000     0.215440000000     0.620690000000    -0.00249313 
C69      C      0.336540000000     0.243240000000     0.620270000000    -0.0893774  
C70      C      0.352980000000     0.271010000000     0.619860000000    -0.00279099 
C71      C      0.102980000000     0.216850000000     0.619860000000    -0.00289807 
C72      C      0.086540000000     0.244620000000     0.620270000000    -0.0880671  
C73      C      0.102960000000     0.272420000000     0.620690000000    -0.00265271 
C74      C      0.135070000000     0.272420000000     0.620690000000    -0.00202607 
C75      C      0.151480000000     0.244620000000     0.620270000000    -0.0894876  
C76      C      0.135040000000     0.216850000000     0.619860000000    -0.00224621 
C77      C      0.385030000000     0.021830000000     0.620300000000     0.00280944 
C78      C      0.401480000000     0.994070000000     0.620280000000    -0.0943164  
C79      C      0.385080000000     0.466260000000     0.620280000000    -0.00262403 
C80      C      0.352990000000     0.466200000000     0.620290000000    -0.00277295 
C81      C      0.336540000000     0.493970000000     0.620280000000    -0.0893951  
C82      C      0.352940000000     0.021780000000     0.620290000000     0.00276988 
C83      C      0.102940000000     0.021780000000     0.620290000000     0.00257471 
C84      C      0.086540000000     0.993970000000     0.620280000000    -0.0929478  
C85      C      0.103000000000     0.466210000000     0.620280000000    -0.00273103 
C86      C      0.135080000000     0.466260000000     0.620270000000    -0.00211895 
C87      C      0.151480000000     0.494070000000     0.620280000000    -0.0894158  
C88      C      0.135030000000     0.021840000000     0.620300000000     0.00315125 
C89      C      0.243910000000     0.216150000000     0.478890000000    -0.00239448 
C90      C      0.243990000000     0.243940000000     0.462430000000    -0.0890703  
C91      C      0.244080000000     0.271720000000     0.478890000000    -0.0024168  
C92      C      0.244080000000     0.271720000000     0.511050000000    -0.00238089 
C93      C      0.244010000000     0.243940000000     0.527510000000    -0.0891033  
C94      C      0.243920000000     0.216150000000     0.511050000000    -0.0023966  
C95      C      0.243990000000     0.466250000000     0.478890000000    -0.00239749 
C96      C      0.243990000000     0.994040000000     0.462430000000    -0.0939545  
C97      C      0.244000000000     0.021830000000     0.478890000000     0.00294397 
C98      C      0.244000000000     0.021830000000     0.511050000000     0.00294716 
C99      C      0.244010000000     0.494040000000     0.527510000000    -0.089027   
C100     C      0.244010000000     0.466250000000     0.511050000000    -0.00244446 
C101     C      0.493720000000     0.216150000000     0.478900000000    -0.00241494 
C102     C      0.993990000000     0.243940000000     0.462430000000    -0.0897149  
C103     C      0.994260000000     0.271720000000     0.478900000000    -0.00279176 
C104     C      0.994270000000     0.271720000000     0.511050000000    -0.00296405 
C105     C      0.994000000000     0.243930000000     0.527510000000    -0.089574   
C106     C      0.493730000000     0.216150000000     0.511050000000    -0.00246031 
C107     C      0.385040000000     0.271710000000     0.369670000000    -0.00272533 
C108     C      0.401440000000     0.243890000000     0.369670000000    -0.0893814  
C109     C      0.384990000000     0.216130000000     0.369650000000    -0.00263063 
C110     C      0.352900000000     0.216180000000     0.369660000000    -0.00260385 
C111     C      0.336500000000     0.243990000000     0.369660000000    -0.0894443  
C112     C      0.352960000000     0.271760000000     0.369650000000    -0.00262178 
C113     C      0.135040000000     0.271700000000     0.369670000000    -0.00216196 
C114     C      0.151440000000     0.243880000000     0.369670000000    -0.0895496  
C115     C      0.134990000000     0.216120000000     0.369660000000    -0.00203772 
C116     C      0.102900000000     0.216170000000     0.369670000000    -0.00287452 
C117     C      0.086500000000     0.243990000000     0.369670000000    -0.087982   
C118     C      0.102960000000     0.271750000000     0.369650000000    -0.00278932 
C119     C      0.993990000000     0.466250000000     0.478900000000    -0.00287563 
C120     C      0.993990000000     0.494040000000     0.462440000000    -0.0895784  
C121     C      0.493990000000     0.021830000000     0.478900000000     0.00282609 
C122     C      0.493990000000     0.021830000000     0.511050000000     0.00300634 
C123     C      0.994000000000     0.994040000000     0.527520000000    -0.0946857  
C124     C      0.994000000000     0.466250000000     0.511050000000    -0.00290245 
C125     C      0.385040000000     0.021790000000     0.369660000000     0.00274248 
C126     C      0.401440000000     0.493970000000     0.369670000000    -0.0894329  
C127     C      0.384990000000     0.466210000000     0.369660000000    -0.00259265 
C128     C      0.352900000000     0.466260000000     0.369670000000    -0.00276651 
C129     C      0.336510000000     0.994080000000     0.369660000000    -0.0941675  
C130     C      0.352960000000     0.021840000000     0.369640000000     0.00270953 
C131     C      0.102900000000     0.466260000000     0.369670000000    -0.00288569 
C132     C      0.086500000000     0.494080000000     0.369670000000    -0.0880037  
C133     C      0.102960000000     0.021840000000     0.369650000000     0.00259997 
C134     C      0.135040000000     0.021790000000     0.369660000000     0.00320991 
C135     C      0.151440000000     0.993970000000     0.369670000000    -0.0943697  
C136     C      0.134990000000     0.466210000000     0.369660000000    -0.00211342 
C137     C      0.224450000000     0.224130000000     0.728890000000    -0.000799283
C138     C      0.244010000000     0.243930000000     0.712600000000    -0.0896642  
C139     C      0.263560000000     0.263730000000     0.728890000000    -0.000797745
C140     C      0.263950000000     0.263330000000     0.761050000000    -0.000791481
C141     C      0.243990000000     0.243930000000     0.777340000000    -0.0897496  
C142     C      0.224050000000     0.224530000000     0.761050000000    -0.000666449
C143     C      0.263870000000     0.013450000000     0.761060000000     0.00610233 
C144     C      0.243990000000     0.493970000000     0.777340000000    -0.0897567  
C145     C      0.224120000000     0.474500000000     0.761040000000    -0.000774565
C146     C      0.224520000000     0.474110000000     0.728880000000    -0.000977066
C147     C      0.244000000000     0.494000000000     0.712610000000    -0.0895166  
C148     C      0.263480000000     0.013860000000     0.728900000000     0.00385264 
C149     C      0.271790000000     0.384960000000     0.869640000000    -0.0027158  
C150     C      0.244030000000     0.401410000000     0.869650000000    -0.0892729  
C151     C      0.216210000000     0.385010000000     0.869650000000    -0.00270531 
C152     C      0.216160000000     0.352930000000     0.869640000000    -0.00252763 
C153     C      0.243920000000     0.336470000000     0.869660000000    -0.0894249  
C154     C      0.271740000000     0.352870000000     0.869660000000    -0.00271046 
C155     C      0.271740000000     0.102870000000     0.869690000000    -0.00282999 
C156     C      0.243920000000     0.086470000000     0.869680000000    -0.0880041  
C157     C      0.216160000000     0.102930000000     0.869660000000    -0.00279778 
C158     C      0.216210000000     0.135010000000     0.869670000000    -0.00214289 
C159     C      0.244020000000     0.151410000000     0.869680000000    -0.089443   
C160     C      0.271790000000     0.134960000000     0.869670000000    -0.00212178 
C161     C      0.013870000000     0.224460000000     0.761060000000     0.00405927 
C162     C      0.994000000000     0.243940000000     0.777340000000    -0.0940386  
C163     C      0.474130000000     0.263410000000     0.761050000000    -0.000815441
C164     C      0.474530000000     0.263810000000     0.728890000000    -0.000790693
C165     C      0.994010000000     0.243930000000     0.712610000000    -0.0968911  
C166     C      0.013480000000     0.224060000000     0.728900000000     0.00614994 
C167     C      0.474200000000     0.474420000000     0.761050000000    -0.000837138
C168     C      0.994000000000     0.993970000000     0.777340000000    -0.101221   
C169     C      0.013800000000     0.013530000000     0.761070000000     0.0109102  
C170     C      0.013410000000     0.013940000000     0.728910000000     0.0108126  
C171     C      0.994010000000     0.993990000000     0.712610000000    -0.101185   
C172     C      0.474600000000     0.474040000000     0.728890000000    -0.000893436
C173     C      0.022480000000     0.385000000000     0.869250000000     0.00286712 
C174     C      0.994680000000     0.401410000000     0.869670000000    -0.0941249  
C175     C      0.966900000000     0.384980000000     0.870070000000    -0.00265186 
C176     C      0.966900000000     0.352920000000     0.870080000000    -0.00259103 
C177     C      0.994680000000     0.336470000000     0.869670000000    -0.0942261  
C178     C      0.022480000000     0.352890000000     0.869250000000     0.00285016 
C179     C      0.021060000000     0.102920000000     0.870110000000     0.00241844 
C180     C      0.993290000000     0.086480000000     0.869690000000    -0.0928342  
C181     C      0.465490000000     0.102890000000     0.869270000000    -0.00269213 
C182     C      0.465490000000     0.135000000000     0.869270000000    -0.00207708 
C183     C      0.993290000000     0.151420000000     0.869690000000    -0.0943275  
C184     C      0.021070000000     0.134980000000     0.870110000000     0.00301103 
C185     C      0.224070000000     0.263420000000     0.228900000000    -0.000934625
C186     C      0.243950000000     0.243940000000     0.212610000000    -0.0896028  
C187     C      0.263820000000     0.224460000000     0.228890000000    -0.00088777 
C188     C      0.263430000000     0.224070000000     0.261050000000    -0.000701651
C189     C      0.243960000000     0.243940000000     0.277340000000    -0.0898568  
C190     C      0.224480000000     0.263810000000     0.261050000000    -0.000670688
C191     C      0.216160000000     0.243950000000     0.011050000000    -0.00247163 
C192     C      0.243950000000     0.243960000000     0.027510000000    -0.0889988  
C193     C      0.271740000000     0.243960000000     0.011050000000    -0.00252416 
C194     C      0.271740000000     0.243950000000     0.978900000000    -0.00231329 
C195     C      0.243960000000     0.243950000000     0.962430000000    -0.0892151  
C196     C      0.216170000000     0.243960000000     0.978890000000    -0.00230825 
C197     C      0.224080000000     0.013460000000     0.228890000000     0.00609446 
C198     C      0.243950000000     0.993980000000     0.212610000000    -0.0969011  
C199     C      0.263830000000     0.474510000000     0.228900000000    -0.000866499
C200     C      0.263440000000     0.474130000000     0.261050000000    -0.000851883
C201     C      0.243960000000     0.994010000000     0.277340000000    -0.0940644  
C202     C      0.224480000000     0.013870000000     0.261050000000     0.00401728 
C203     C      0.216160000000     0.493930000000     0.011050000000    -0.00250147 
C204     C      0.243950000000     0.993930000000     0.027510000000    -0.0895574  
C205     C      0.271740000000     0.993940000000     0.011050000000    -0.00291351 
C206     C      0.271740000000     0.993930000000     0.978900000000    -0.0028549  
C207     C      0.243960000000     0.493930000000     0.962430000000    -0.0891703  
C208     C      0.216170000000     0.493940000000     0.978890000000    -0.00242738 
C209     C      0.216180000000     0.352880000000     0.120290000000    -0.00267606 
C210     C      0.244000000000     0.336480000000     0.120290000000    -0.0894219  
C211     C      0.271760000000     0.352940000000     0.120300000000    -0.00261166 
C212     C      0.271710000000     0.385020000000     0.120290000000    -0.00272558 
C213     C      0.243890000000     0.401420000000     0.120290000000    -0.0893899  
C214     C      0.216130000000     0.384970000000     0.120300000000    -0.00259738 
C215     C      0.216180000000     0.102880000000     0.120270000000    -0.00283791 
C216     C      0.244000000000     0.086480000000     0.120270000000    -0.0880194  
C217     C      0.271760000000     0.102940000000     0.120280000000    -0.00275296 
C218     C      0.271710000000     0.135020000000     0.120270000000    -0.00222496 
C219     C      0.243890000000     0.151420000000     0.120270000000    -0.0894225  
C220     C      0.216130000000     0.134970000000     0.120280000000    -0.00210288 
C221     C      0.013830000000     0.224470000000     0.228900000000     0.00405868 
C222     C      0.993960000000     0.243950000000     0.212610000000    -0.0941239  
C223     C      0.474090000000     0.263420000000     0.228900000000    -0.000814708
C224     C      0.474490000000     0.263820000000     0.261060000000    -0.000880283
C225     C      0.993960000000     0.243940000000     0.277340000000    -0.0968439  
C226     C      0.013440000000     0.224070000000     0.261050000000     0.00605008 
C227     C      0.466180000000     0.243690000000     0.011060000000    -0.00239727 
C228     C      0.993970000000     0.243960000000     0.027520000000    -0.0939745  
C229     C      0.021750000000     0.244230000000     0.011060000000     0.00303276 
C230     C      0.021760000000     0.244230000000     0.978910000000     0.0028715  
C231     C      0.993970000000     0.243960000000     0.962440000000    -0.0939399  
C232     C      0.466180000000     0.243690000000     0.978900000000    -0.00249515 
C233     C      0.474090000000     0.013470000000     0.228890000000     0.00605375 
C234     C      0.993960000000     0.493980000000     0.212610000000    -0.0941151  
C235     C      0.013840000000     0.474510000000     0.228900000000     0.00395557 
C236     C      0.013440000000     0.474130000000     0.261060000000     0.0060635  
C237     C      0.993970000000     0.494010000000     0.277340000000    -0.0968077  
C238     C      0.474490000000     0.013880000000     0.261050000000     0.00392701 
C239     C      0.021750000000     0.494030000000     0.011060000000     0.00295689 
C240     C      0.993970000000     0.993940000000     0.027520000000    -0.0944869  
C241     C      0.466180000000     0.993850000000     0.011050000000    -0.00288088 
C242     C      0.466180000000     0.993850000000     0.978900000000    -0.00290857 
C243     C      0.993970000000     0.993930000000     0.962440000000    -0.0944684  
C244     C      0.021760000000     0.494020000000     0.978900000000     0.00285454 
C245     C      0.466140000000     0.384970000000     0.120310000000    -0.00259249 
C246     C      0.993910000000     0.401430000000     0.120300000000    -0.0943524  
C247     C      0.021720000000     0.385030000000     0.120300000000     0.0027564  
C248     C      0.021770000000     0.352940000000     0.120310000000     0.00272965 
C249     C      0.994010000000     0.336490000000     0.120300000000    -0.094244   
C250     C      0.466190000000     0.352890000000     0.120300000000    -0.00274366 
C251     C      0.021780000000     0.102940000000     0.120280000000     0.00262266 
C252     C      0.994020000000     0.086490000000     0.120270000000    -0.092854   
C253     C      0.466200000000     0.102890000000     0.120280000000    -0.00288703 
C254     C      0.466150000000     0.134970000000     0.120290000000    -0.00211937 
C255     C      0.993910000000     0.151430000000     0.120280000000    -0.094335   
C256     C      0.021730000000     0.135030000000     0.120280000000     0.00314851 
C257     C      0.993960000000     0.993970000000     0.178770000000     0.374017   
C258     C      0.993960000000     0.493940000000     0.061620000000     0.372898   
C259     C      0.493890000000     0.935450000000     0.120280000000     0.377981   
C260     C      0.494030000000     0.552470000000     0.120260000000     0.378419   
C261     C      0.993960000000     0.743950000000     0.178770000000     0.372988   
C262     C      0.993960000000     0.743960000000     0.061620000000     0.372903   
C263     C      0.993900000000     0.685450000000     0.120260000000     0.372524   
C264     C      0.994020000000     0.802470000000     0.120270000000     0.372537   
C265     C      0.244010000000     0.552460000000     0.120250000000     0.378526   
C266     C      0.243880000000     0.935440000000     0.120270000000     0.378024   
C267     C      0.243950000000     0.493970000000     0.178760000000     0.379332   
C268     C      0.243950000000     0.493940000000     0.061610000000     0.378787   
C269     C      0.243880000000     0.685440000000     0.120250000000     0.378499   
C270     C      0.244010000000     0.802460000000     0.120270000000     0.378498   
C271     C      0.243950000000     0.743960000000     0.061610000000     0.378791   
C272     C      0.243940000000     0.743950000000     0.178760000000     0.379331   
C273     C      0.994520000000     0.935440000000     0.869690000000     0.37223    
C274     C      0.993450000000     0.552450000000     0.869700000000     0.372533   
C275     C      0.993980000000     0.493940000000     0.928340000000     0.372999   
C276     C      0.993990000000     0.493960000000     0.811190000000     0.373114   
C277     C      0.994520000000     0.802450000000     0.869690000000     0.372537   
C278     C      0.993450000000     0.685440000000     0.869700000000     0.37246    
C279     C      0.993980000000     0.743950000000     0.928340000000     0.373059   
C280     C      0.993990000000     0.743940000000     0.811190000000     0.373127   
C281     C      0.243980000000     0.993960000000     0.811180000000     0.38008    
C282     C      0.243960000000     0.993930000000     0.928330000000     0.378114   
C283     C      0.243910000000     0.552450000000     0.869690000000     0.378519   
C284     C      0.244040000000     0.935430000000     0.869670000000     0.37774    
C285     C      0.243990000000     0.743940000000     0.811180000000     0.379368   
C286     C      0.243960000000     0.743950000000     0.928340000000     0.378808   
C287     C      0.244040000000     0.685430000000     0.869690000000     0.378478   
C288     C      0.243910000000     0.802450000000     0.869680000000     0.378546   
C289     C      0.435460000000     0.993960000000     0.369690000000     0.37251    
C290     C      0.052480000000     0.994090000000     0.369690000000     0.371646   
C291     C      0.993980000000     0.994040000000     0.428340000000     0.372105   
C292     C      0.993970000000     0.994020000000     0.311190000000     0.374018   
C293     C      0.993970000000     0.743940000000     0.311180000000     0.379934   
C294     C      0.993980000000     0.743940000000     0.428340000000     0.378059   
C295     C      0.052480000000     0.744000000000     0.369690000000     0.377476   
C296     C      0.435460000000     0.743870000000     0.369690000000     0.378421   
C297     C      0.243980000000     0.494040000000     0.428330000000     0.378866   
C298     C      0.243970000000     0.494020000000     0.311180000000     0.379046   
C299     C      0.302480000000     0.494090000000     0.369680000000     0.378426   
C300     C      0.185460000000     0.493960000000     0.369690000000     0.378587   
C301     C      0.302480000000     0.744010000000     0.369680000000     0.378509   
C302     C      0.185460000000     0.743870000000     0.369690000000     0.378551   
C303     C      0.243970000000     0.743940000000     0.311180000000     0.379136   
C304     C      0.243980000000     0.743940000000     0.428330000000     0.378794   
C305     C      0.994010000000     0.494030000000     0.561610000000     0.377752   
C306     C      0.994010000000     0.494000000000     0.678770000000     0.380005   
C307     C      0.435500000000     0.494080000000     0.620270000000     0.378464   
C308     C      0.052520000000     0.493960000000     0.620260000000     0.377482   
C309     C      0.052520000000     0.744460000000     0.620260000000     0.377717   
C310     C      0.435500000000     0.743400000000     0.620260000000     0.378267   
C311     C      0.994010000000     0.743930000000     0.678770000000     0.380214   
C312     C      0.494010000000     0.743930000000     0.561610000000     0.378849   
C313     C      0.244010000000     0.994010000000     0.678760000000     0.372863   
C314     C      0.244010000000     0.994030000000     0.561610000000     0.372844   
C315     C      0.185500000000     0.994090000000     0.620260000000     0.372651   
C316     C      0.302520000000     0.993950000000     0.620260000000     0.372549   
C317     C      0.244010000000     0.743930000000     0.678760000000     0.379283   
C318     C      0.244010000000     0.743930000000     0.561610000000     0.378957   
C319     C      0.185500000000     0.744470000000     0.620250000000     0.378712   
C320     C      0.302520000000     0.743400000000     0.620250000000     0.378449   
C321     C      0.385040000000     0.771010000000     0.619860000000    -0.00278966 
C322     C      0.401480000000     0.743240000000     0.620270000000    -0.0893391  
C323     C      0.385070000000     0.715440000000     0.620690000000    -0.00254434 
C324     C      0.352960000000     0.715440000000     0.620690000000    -0.00250533 
C325     C      0.336540000000     0.743240000000     0.620270000000    -0.0893798  
C326     C      0.352980000000     0.771010000000     0.619860000000    -0.00277665 
C327     C      0.102980000000     0.716850000000     0.619860000000    -0.00290302 
C328     C      0.086540000000     0.744620000000     0.620270000000    -0.0880659  
C329     C      0.102960000000     0.772420000000     0.620690000000    -0.00264107 
C330     C      0.135070000000     0.772420000000     0.620690000000    -0.0019801  
C331     C      0.151480000000     0.744630000000     0.620270000000    -0.0894877  
C332     C      0.135040000000     0.716850000000     0.619860000000    -0.0022841  
C333     C      0.385030000000     0.521830000000     0.620300000000    -0.00258568 
C334     C      0.401480000000     0.494070000000     0.620280000000    -0.0894463  
C335     C      0.385080000000     0.966260000000     0.620280000000    -0.00247405 
C336     C      0.352990000000     0.966200000000     0.620290000000    -0.00255635 
C337     C      0.336540000000     0.993970000000     0.620280000000    -0.0943302  
C338     C      0.352940000000     0.521780000000     0.620290000000    -0.0026183  
C339     C      0.102940000000     0.521780000000     0.620290000000    -0.00279775 
C340     C      0.086540000000     0.493970000000     0.620280000000    -0.0880345  
C341     C      0.103000000000     0.966210000000     0.620280000000    -0.00256027 
C342     C      0.135080000000     0.966260000000     0.620270000000    -0.00195023 
C343     C      0.151480000000     0.994070000000     0.620280000000    -0.0942773  
C344     C      0.135030000000     0.521840000000     0.620300000000    -0.00223432 
C345     C      0.243910000000     0.716150000000     0.478890000000    -0.00242125 
C346     C      0.243990000000     0.743940000000     0.462430000000    -0.0890452  
C347     C      0.244080000000     0.771720000000     0.478890000000    -0.00239619 
C348     C      0.244080000000     0.771720000000     0.511050000000    -0.00239084 
C349     C      0.244010000000     0.743930000000     0.527510000000    -0.0891039  
C350     C      0.243920000000     0.716150000000     0.511050000000    -0.00236162 
C351     C      0.243990000000     0.966250000000     0.478890000000    -0.00223795 
C352     C      0.243990000000     0.494040000000     0.462430000000    -0.0890826  
C353     C      0.244000000000     0.521830000000     0.478890000000    -0.00239015 
C354     C      0.244000000000     0.521830000000     0.511050000000    -0.0024613  
C355     C      0.244010000000     0.994040000000     0.527510000000    -0.0939335  
C356     C      0.244010000000     0.966250000000     0.511050000000    -0.00226331 
C357     C      0.493720000000     0.716150000000     0.478900000000    -0.00240283 
C358     C      0.993990000000     0.743930000000     0.462430000000    -0.0896825  
C359     C      0.994260000000     0.771720000000     0.478900000000    -0.00284033 
C360     C      0.994270000000     0.771720000000     0.511050000000    -0.00287966 
C361     C      0.994000000000     0.743930000000     0.527510000000    -0.089594   
C362     C      0.493730000000     0.716150000000     0.511050000000    -0.00246176 
C363     C      0.385040000000     0.771700000000     0.369670000000    -0.00266018 
C364     C      0.401440000000     0.743890000000     0.369670000000    -0.0893548  
C365     C      0.384990000000     0.716120000000     0.369650000000    -0.00273833 
C366     C      0.352900000000     0.716180000000     0.369660000000    -0.00255645 
C367     C      0.336500000000     0.743990000000     0.369660000000    -0.089456   
C368     C      0.352960000000     0.771750000000     0.369650000000    -0.00261151 
C369     C      0.135040000000     0.771700000000     0.369670000000    -0.00221025 
C370     C      0.151440000000     0.743880000000     0.369670000000    -0.0894108  
C371     C      0.134990000000     0.716120000000     0.369660000000    -0.00210845 
C372     C      0.102900000000     0.716170000000     0.369670000000    -0.00285582 
C373     C      0.086500000000     0.743990000000     0.369670000000    -0.0879903  
C374     C      0.102960000000     0.771750000000     0.369650000000    -0.00274587 
C375     C      0.993990000000     0.966250000000     0.478900000000    -0.00276234 
C376     C      0.993990000000     0.994040000000     0.462440000000    -0.0944198  
C377     C      0.493990000000     0.521830000000     0.478900000000    -0.00250301 
C378     C      0.493990000000     0.521830000000     0.511050000000    -0.00249131 
C379     C      0.994000000000     0.494040000000     0.527520000000    -0.0895607  
C380     C      0.994000000000     0.966250000000     0.511050000000    -0.00261888 
C381     C      0.385040000000     0.521790000000     0.369660000000    -0.00268006 
C382     C      0.401440000000     0.993970000000     0.369670000000    -0.0943631  
C383     C      0.384990000000     0.966210000000     0.369660000000    -0.00241504 
C384     C      0.352900000000     0.966260000000     0.369670000000    -0.00259987 
C385     C      0.336510000000     0.494080000000     0.369660000000    -0.0892998  
C386     C      0.352960000000     0.521840000000     0.369640000000    -0.00266843 
C387     C      0.102900000000     0.966260000000     0.369670000000    -0.00272268 
C388     C      0.086500000000     0.994080000000     0.369670000000    -0.0928619  
C389     C      0.102960000000     0.521840000000     0.369650000000    -0.00276269 
C390     C      0.135040000000     0.521790000000     0.369660000000    -0.00220485 
C391     C      0.151440000000     0.493970000000     0.369670000000    -0.0894458  
C392     C      0.134990000000     0.966210000000     0.369660000000    -0.00193549 
C393     C      0.224450000000     0.724130000000     0.728890000000    -0.000822136
C394     C      0.244010000000     0.743930000000     0.712600000000    -0.0896764  
C395     C      0.263560000000     0.763730000000     0.728890000000    -0.00079574 
C396     C      0.263950000000     0.763330000000     0.761050000000    -0.000790203
C397     C      0.243990000000     0.743930000000     0.777340000000    -0.0897679  
C398     C      0.224050000000     0.724530000000     0.761050000000    -0.000685005
C399     C      0.263870000000     0.513450000000     0.761060000000    -0.000800831
C400     C      0.243990000000     0.993970000000     0.777340000000    -0.096934   
C401     C      0.224120000000     0.974500000000     0.761040000000     0.000489738
C402     C      0.224520000000     0.974110000000     0.728880000000    -0.00148049 
C403     C      0.244000000000     0.993990000000     0.712610000000    -0.0939324  
C404     C      0.263480000000     0.513860000000     0.728900000000    -0.000965964
C405     C      0.271790000000     0.884960000000     0.869640000000    -0.00276668 
C406     C      0.244030000000     0.901410000000     0.869650000000    -0.0891462  
C407     C      0.216210000000     0.885010000000     0.869650000000    -0.00275315 
C408     C      0.216160000000     0.852930000000     0.869640000000    -0.00248865 
C409     C      0.243920000000     0.836470000000     0.869660000000    -0.0894202  
C410     C      0.271740000000     0.852870000000     0.869660000000    -0.00269481 
C411     C      0.271740000000     0.602870000000     0.869690000000    -0.00265377 
C412     C      0.243920000000     0.586470000000     0.869680000000    -0.0893812  
C413     C      0.216160000000     0.602930000000     0.869660000000    -0.00264787 
C414     C      0.216210000000     0.635010000000     0.869670000000    -0.00262058 
C415     C      0.244020000000     0.651410000000     0.869680000000    -0.0893928  
C416     C      0.271790000000     0.634960000000     0.869670000000    -0.00259783 
C417     C      0.013870000000     0.724460000000     0.761060000000     0.00404972 
C418     C      0.994000000000     0.743940000000     0.777340000000    -0.0940686  
C419     C      0.474130000000     0.763410000000     0.761050000000    -0.000799837
C420     C      0.474530000000     0.763810000000     0.728890000000    -0.000820149
C421     C      0.994010000000     0.743930000000     0.712610000000    -0.0968964  
C422     C      0.013480000000     0.724060000000     0.728900000000     0.00612446 
C423     C      0.474200000000     0.974420000000     0.761050000000     0.000399139
C424     C      0.994000000000     0.493970000000     0.777340000000    -0.0940827  
C425     C      0.013800000000     0.513530000000     0.761070000000     0.00403521 
C426     C      0.013410000000     0.513940000000     0.728910000000     0.00602859 
C427     C      0.994010000000     0.494000000000     0.712610000000    -0.096799   
C428     C      0.474600000000     0.974040000000     0.728890000000    -0.00138322 
C429     C      0.022480000000     0.885000000000     0.869250000000     0.00289082 
C430     C      0.994680000000     0.901420000000     0.869670000000    -0.0941449  
C431     C      0.966900000000     0.884980000000     0.870070000000    -0.00261547 
C432     C      0.966900000000     0.852920000000     0.870080000000    -0.00264227 
C433     C      0.994680000000     0.836480000000     0.869670000000    -0.0940844  
C434     C      0.022480000000     0.852890000000     0.869250000000     0.00280373 
C435     C      0.021060000000     0.602920000000     0.870110000000     0.00264917 
C436     C      0.993290000000     0.586480000000     0.869690000000    -0.094261   
C437     C      0.465490000000     0.602890000000     0.869270000000    -0.00249466 
C438     C      0.465490000000     0.635000000000     0.869270000000    -0.00261869 
C439     C      0.993290000000     0.651410000000     0.869690000000    -0.0941573  
C440     C      0.021070000000     0.634970000000     0.870110000000     0.00248408 
C441     C      0.224070000000     0.763420000000     0.228900000000    -0.000904724
C442     C      0.243950000000     0.743940000000     0.212610000000    -0.0896467  
C443     C      0.263820000000     0.724460000000     0.228890000000    -0.000861754
C444     C      0.263430000000     0.724070000000     0.261050000000    -0.000794821
C445     C      0.243960000000     0.743940000000     0.277340000000    -0.0897213  
C446     C      0.224480000000     0.763810000000     0.261050000000    -0.000733637
C447     C      0.216160000000     0.743950000000     0.011050000000    -0.00251837 
C448     C      0.243950000000     0.743960000000     0.027510000000    -0.0890532  
C449     C      0.271740000000     0.743960000000     0.011050000000    -0.00257088 
C450     C      0.271740000000     0.743950000000     0.978900000000    -0.00236117 
C451     C      0.243960000000     0.743950000000     0.962430000000    -0.0892675  
C452     C      0.216170000000     0.743960000000     0.978890000000    -0.00235623 
C453     C      0.224080000000     0.513460000000     0.228890000000    -0.000810189
C454     C      0.243950000000     0.493980000000     0.212610000000    -0.0897005  
C455     C      0.263830000000     0.974510000000     0.228900000000     0.000459464
C456     C      0.263440000000     0.974120000000     0.261050000000    -0.00147891 
C457     C      0.243960000000     0.494000000000     0.277340000000    -0.0896843  
C458     C      0.224480000000     0.513870000000     0.261050000000    -0.000835362
C459     C      0.216160000000     0.993930000000     0.011050000000    -0.00290312 
C460     C      0.243950000000     0.493930000000     0.027510000000    -0.0891105  
C461     C      0.271740000000     0.493940000000     0.011050000000    -0.00251314 
C462     C      0.271740000000     0.493930000000     0.978900000000    -0.00245414 
C463     C      0.243960000000     0.993930000000     0.962430000000    -0.0896183  
C464     C      0.216170000000     0.993930000000     0.978890000000    -0.0028265  
C465     C      0.216180000000     0.852880000000     0.120290000000    -0.00265945 
C466     C      0.244000000000     0.836480000000     0.120290000000    -0.0894057  
C467     C      0.271760000000     0.852930000000     0.120300000000    -0.00259331 
C468     C      0.271710000000     0.885020000000     0.120290000000    -0.00276756 
C469     C      0.243890000000     0.901420000000     0.120290000000    -0.0892682  
C470     C      0.216130000000     0.884970000000     0.120300000000    -0.00264603 
C471     C      0.216180000000     0.602880000000     0.120270000000    -0.00265993 
C472     C      0.244000000000     0.586480000000     0.120270000000    -0.0894051  
C473     C      0.271760000000     0.602940000000     0.120280000000    -0.00259104 
C474     C      0.271710000000     0.635020000000     0.120270000000    -0.00270288 
C475     C      0.243890000000     0.651420000000     0.120270000000    -0.0893775  
C476     C      0.216130000000     0.634970000000     0.120280000000    -0.00257452 
C477     C      0.013830000000     0.724470000000     0.228900000000     0.0040492  
C478     C      0.993960000000     0.743950000000     0.212610000000    -0.094148   
C479     C      0.474090000000     0.763420000000     0.228900000000    -0.000808023
C480     C      0.474490000000     0.763820000000     0.261060000000    -0.000885633
C481     C      0.993960000000     0.743940000000     0.277340000000    -0.096842   
C482     C      0.013440000000     0.724070000000     0.261050000000     0.00602539 
C483     C      0.466180000000     0.743690000000     0.011060000000    -0.00244524 
C484     C      0.993970000000     0.743960000000     0.027520000000    -0.0940307  
C485     C      0.021750000000     0.744230000000     0.011060000000     0.00298942 
C486     C      0.021760000000     0.744230000000     0.978910000000     0.00282832 
C487     C      0.993970000000     0.743960000000     0.962440000000    -0.0939965  
C488     C      0.466180000000     0.743690000000     0.978900000000    -0.00254299 
C489     C      0.474090000000     0.513470000000     0.228890000000    -0.000846069
C490     C      0.993960000000     0.993980000000     0.212610000000    -0.101278   
C491     C      0.013840000000     0.974510000000     0.228900000000     0.00522344 
C492     C      0.013440000000     0.974130000000     0.261060000000     0.00551552 
C493     C      0.993970000000     0.994010000000     0.277340000000    -0.101203   
C494     C      0.474490000000     0.513880000000     0.261050000000    -0.000924485
C495     C      0.021750000000     0.994030000000     0.011060000000     0.00254822 
C496     C      0.993970000000     0.493940000000     0.027520000000    -0.0940485  
C497     C      0.466180000000     0.493850000000     0.011050000000    -0.00248101 
C498     C      0.466180000000     0.493850000000     0.978900000000    -0.00250857 
C499     C      0.993970000000     0.493930000000     0.962440000000    -0.0940339  
C500     C      0.021760000000     0.994020000000     0.978900000000     0.00244191 
C501     C      0.466140000000     0.884970000000     0.120310000000    -0.00272197 
C502     C      0.993910000000     0.901420000000     0.120300000000    -0.0940821  
C503     C      0.021720000000     0.885030000000     0.120300000000     0.00263912 
C504     C      0.021770000000     0.852940000000     0.120310000000     0.00279193 
C505     C      0.994010000000     0.836490000000     0.120300000000    -0.0942629  
C506     C      0.466190000000     0.852890000000     0.120300000000    -0.00267947 
C507     C      0.021780000000     0.602940000000     0.120280000000     0.0028235  
C508     C      0.994020000000     0.586490000000     0.120270000000    -0.0942625  
C509     C      0.466200000000     0.602890000000     0.120280000000    -0.00267909 
C510     C      0.466150000000     0.634970000000     0.120290000000    -0.00265021 
C511     C      0.993910000000     0.651420000000     0.120280000000    -0.094177   
C512     C      0.021730000000     0.635030000000     0.120280000000     0.00263766 
C513     C      0.493960000000     0.493970000000     0.178770000000     0.379066   
C514     C      0.493960000000     0.993940000000     0.061620000000     0.378081   
C515     C      0.993890000000     0.435450000000     0.120280000000     0.372614   
C516     C      0.994030000000     0.052470000000     0.120260000000     0.371554   
C517     C      0.493960000000     0.243950000000     0.178770000000     0.379078   
C518     C      0.493960000000     0.243960000000     0.061620000000     0.378826   
C519     C      0.493900000000     0.185450000000     0.120260000000     0.378666   
C520     C      0.494020000000     0.302470000000     0.120270000000     0.378386   
C521     C      0.744010000000     0.052460000000     0.120250000000     0.37755    
C522     C      0.743880000000     0.435440000000     0.120270000000     0.378463   
C523     C      0.743950000000     0.993970000000     0.178760000000     0.380395   
C524     C      0.743950000000     0.993940000000     0.061610000000     0.378074   
C525     C      0.743880000000     0.185440000000     0.120250000000     0.378591   
C526     C      0.744010000000     0.302460000000     0.120270000000     0.378534   
C527     C      0.743950000000     0.243960000000     0.061610000000     0.378833   
C528     C      0.743950000000     0.243940000000     0.178760000000     0.379337   
C529     C      0.494520000000     0.435440000000     0.869690000000     0.378388   
C530     C      0.493450000000     0.052450000000     0.869700000000     0.377446   
C531     C      0.493980000000     0.993930000000     0.928340000000     0.37818    
C532     C      0.493990000000     0.993960000000     0.811190000000     0.38023    
C533     C      0.494520000000     0.302450000000     0.869690000000     0.378495   
C534     C      0.493450000000     0.185440000000     0.869700000000     0.378597   
C535     C      0.493980000000     0.243950000000     0.928340000000     0.378709   
C536     C      0.493990000000     0.243940000000     0.811190000000     0.379203   
C537     C      0.743990000000     0.493960000000     0.811180000000     0.379367   
C538     C      0.743960000000     0.493930000000     0.928330000000     0.378872   
C539     C      0.743910000000     0.052450000000     0.869690000000     0.377571   
C540     C      0.744040000000     0.435430000000     0.869670000000     0.378184   
C541     C      0.743990000000     0.243940000000     0.811180000000     0.379378   
C542     C      0.743960000000     0.243950000000     0.928340000000     0.378838   
C543     C      0.744040000000     0.185430000000     0.869690000000     0.378312   
C544     C      0.743910000000     0.302450000000     0.869680000000     0.378535   
C545     C      0.935460000000     0.493960000000     0.369690000000     0.378039   
C546     C      0.552480000000     0.494090000000     0.369690000000     0.378586   
C547     C      0.493980000000     0.494040000000     0.428340000000     0.378747   
C548     C      0.493970000000     0.494020000000     0.311190000000     0.379074   
C549     C      0.493970000000     0.243940000000     0.311180000000     0.378924   
C550     C      0.493980000000     0.243940000000     0.428340000000     0.378812   
C551     C      0.552480000000     0.244000000000     0.369690000000     0.378517   
C552     C      0.935460000000     0.243880000000     0.369690000000     0.378057   
C553     C      0.743980000000     0.994040000000     0.428330000000     0.372923   
C554     C      0.743970000000     0.994020000000     0.311180000000     0.37293    
C555     C      0.802480000000     0.994090000000     0.369680000000     0.372557   
C556     C      0.685460000000     0.993960000000     0.369690000000     0.372535   
C557     C      0.802480000000     0.244000000000     0.369680000000     0.37855    
C558     C      0.685460000000     0.243870000000     0.369690000000     0.378744   
C559     C      0.743960000000     0.243940000000     0.311180000000     0.379447   
C560     C      0.743980000000     0.243940000000     0.428330000000     0.378803   
C561     C      0.494010000000     0.994030000000     0.561610000000     0.373146   
C562     C      0.494010000000     0.994010000000     0.678770000000     0.372887   
C563     C      0.935500000000     0.994080000000     0.620270000000     0.372169   
C564     C      0.552520000000     0.993960000000     0.620260000000     0.372541   
C565     C      0.552520000000     0.244470000000     0.620260000000     0.378756   
C566     C      0.935500000000     0.243400000000     0.620260000000     0.377838   
C567     C      0.494010000000     0.243930000000     0.678770000000     0.37916    
C568     C      0.994010000000     0.243930000000     0.561610000000     0.378093   
C569     C      0.744010000000     0.494000000000     0.678760000000     0.378952   
C570     C      0.744010000000     0.494030000000     0.561610000000     0.378736   
C571     C      0.685500000000     0.494090000000     0.620260000000     0.378429   
C572     C      0.802520000000     0.493950000000     0.620260000000     0.378508   
C573     C      0.744010000000     0.243930000000     0.678760000000     0.379261   
C574     C      0.744010000000     0.243930000000     0.561610000000     0.378919   
C575     C      0.685510000000     0.244470000000     0.620250000000     0.3787     
C576     C      0.802520000000     0.243400000000     0.620250000000     0.378454   
C577     C      0.885040000000     0.271010000000     0.619860000000    -0.00284161 
C578     C      0.901480000000     0.243240000000     0.620270000000    -0.0892237  
C579     C      0.885070000000     0.215440000000     0.620690000000    -0.00257351 
C580     C      0.852960000000     0.215440000000     0.620690000000    -0.0024784  
C581     C      0.836540000000     0.243240000000     0.620270000000    -0.0893712  
C582     C      0.852980000000     0.271010000000     0.619860000000    -0.00276358 
C583     C      0.602980000000     0.216850000000     0.619860000000    -0.00268388 
C584     C      0.586540000000     0.244620000000     0.620270000000    -0.0894803  
C585     C      0.602960000000     0.272420000000     0.620690000000    -0.0024745  
C586     C      0.635070000000     0.272420000000     0.620690000000    -0.00254486 
C587     C      0.651480000000     0.244620000000     0.620270000000    -0.0893471  
C588     C      0.635040000000     0.216850000000     0.619860000000    -0.00276271 
C589     C      0.885030000000     0.021830000000     0.620300000000     0.00274702 
C590     C      0.901480000000     0.994070000000     0.620280000000    -0.094186   
C591     C      0.885080000000     0.466260000000     0.620280000000    -0.00266868 
C592     C      0.853000000000     0.466200000000     0.620290000000    -0.00273754 
C593     C      0.836540000000     0.493970000000     0.620280000000    -0.0893935  
C594     C      0.852940000000     0.021780000000     0.620290000000     0.00279182 
C595     C      0.602940000000     0.021780000000     0.620290000000     0.00277332 
C596     C      0.586540000000     0.993970000000     0.620280000000    -0.0943455  
C597     C      0.603000000000     0.466210000000     0.620280000000    -0.00257102 
C598     C      0.635080000000     0.466260000000     0.620270000000    -0.0026084  
C599     C      0.651480000000     0.494070000000     0.620280000000    -0.0893628  
C600     C      0.635030000000     0.021840000000     0.620300000000     0.00268469 
C601     C      0.743900000000     0.216150000000     0.478890000000    -0.00244295 
C602     C      0.743990000000     0.243940000000     0.462430000000    -0.0891245  
C603     C      0.744080000000     0.271720000000     0.478890000000    -0.00246493 
C604     C      0.744090000000     0.271720000000     0.511050000000    -0.00242999 
C605     C      0.744010000000     0.243940000000     0.527510000000    -0.089157   
C606     C      0.743920000000     0.216150000000     0.511050000000    -0.00244514 
C607     C      0.743990000000     0.466250000000     0.478890000000    -0.002446   
C608     C      0.743990000000     0.994040000000     0.462430000000    -0.0940104  
C609     C      0.744000000000     0.021830000000     0.478890000000     0.00289976 
C610     C      0.744000000000     0.021830000000     0.511050000000     0.00290279 
C611     C      0.744010000000     0.494040000000     0.527510000000    -0.0890811  
C612     C      0.744010000000     0.466250000000     0.511050000000    -0.00249284 
C613     C      0.993720000000     0.216150000000     0.478900000000    -0.00281852 
C614     C      0.493990000000     0.243940000000     0.462430000000    -0.0892665  
C615     C      0.494260000000     0.271720000000     0.478900000000    -0.0023883  
C616     C      0.494270000000     0.271720000000     0.511050000000    -0.00256165 
C617     C      0.494000000000     0.243930000000     0.527510000000    -0.0891223  
C618     C      0.993730000000     0.216150000000     0.511050000000    -0.00286038 
C619     C      0.885040000000     0.271710000000     0.369670000000    -0.00276602 
C620     C      0.901440000000     0.243890000000     0.369670000000    -0.0892656  
C621     C      0.884990000000     0.216130000000     0.369650000000    -0.00267674 
C622     C      0.852900000000     0.216180000000     0.369660000000    -0.00258119 
C623     C      0.836500000000     0.243990000000     0.369660000000    -0.0894362  
C624     C      0.852960000000     0.271760000000     0.369650000000    -0.00259609 
C625     C      0.635040000000     0.271700000000     0.369670000000    -0.00264929 
C626     C      0.651440000000     0.243880000000     0.369670000000    -0.0894951  
C627     C      0.634990000000     0.216120000000     0.369660000000    -0.00252222 
C628     C      0.602900000000     0.216170000000     0.369670000000    -0.00268603 
C629     C      0.586500000000     0.243990000000     0.369670000000    -0.0893822  
C630     C      0.602960000000     0.271750000000     0.369650000000    -0.00262014 
C631     C      0.493980000000     0.466250000000     0.478900000000    -0.00247492 
C632     C      0.493980000000     0.494040000000     0.462440000000    -0.0891255  
C633     C      0.994000000000     0.021830000000     0.478900000000     0.00241419 
C634     C      0.993990000000     0.021830000000     0.511050000000     0.00259173 
C635     C      0.494000000000     0.994040000000     0.527520000000    -0.0942499  
C636     C      0.494000000000     0.466250000000     0.511050000000    -0.00250013 
C637     C      0.885040000000     0.021790000000     0.369660000000     0.00269614 
C638     C      0.901440000000     0.493970000000     0.369670000000    -0.0893109  
C639     C      0.884990000000     0.466210000000     0.369660000000    -0.00263871 
C640     C      0.852900000000     0.466260000000     0.369670000000    -0.00275576 
C641     C      0.836510000000     0.994080000000     0.369660000000    -0.0941487  
C642     C      0.852960000000     0.021840000000     0.369640000000     0.00273153 
C643     C      0.602900000000     0.466260000000     0.369670000000    -0.00268909 
C644     C      0.586500000000     0.494080000000     0.369670000000    -0.0894131  
C645     C      0.602960000000     0.021840000000     0.369650000000     0.00279818 
C646     C      0.635050000000     0.021790000000     0.369660000000     0.00272966 
C647     C      0.651440000000     0.993970000000     0.369670000000    -0.0943207  
C648     C      0.634990000000     0.466210000000     0.369660000000    -0.00260283 
C649     C      0.724450000000     0.224130000000     0.728890000000    -0.000827838
C650     C      0.744010000000     0.243930000000     0.712600000000    -0.0896719  
C651     C      0.763560000000     0.263730000000     0.728890000000    -0.00083273 
C652     C      0.763950000000     0.263330000000     0.761050000000    -0.000776522
C653     C      0.743990000000     0.243930000000     0.777340000000    -0.089771   
C654     C      0.724050000000     0.224530000000     0.761050000000    -0.000686859
C655     C      0.763870000000     0.013450000000     0.761060000000     0.00616402 
C656     C      0.743990000000     0.493970000000     0.777340000000    -0.089896   
C657     C      0.724120000000     0.474500000000     0.761040000000    -0.000729377
C658     C      0.724520000000     0.474110000000     0.728880000000    -0.00103417 
C659     C      0.744000000000     0.494000000000     0.712610000000    -0.0895071  
C660     C      0.763480000000     0.013860000000     0.728900000000     0.00383001 
C661     C      0.771790000000     0.384960000000     0.869640000000    -0.00269782 
C662     C      0.744030000000     0.401410000000     0.869650000000    -0.0892778  
C663     C      0.716210000000     0.385010000000     0.869650000000    -0.00271775 
C664     C      0.716160000000     0.352930000000     0.869640000000    -0.00254347 
C665     C      0.743920000000     0.336470000000     0.869660000000    -0.0894266  
C666     C      0.771740000000     0.352870000000     0.869660000000    -0.00269549 
C667     C      0.771730000000     0.102870000000     0.869690000000    -0.00268861 
C668     C      0.743920000000     0.086470000000     0.869680000000    -0.0880788  
C669     C      0.716160000000     0.102930000000     0.869660000000    -0.00274861 
C670     C      0.716210000000     0.135010000000     0.869670000000    -0.00222753 
C671     C      0.744020000000     0.151410000000     0.869680000000    -0.0892941  
C672     C      0.771790000000     0.134960000000     0.869670000000    -0.00222335 
C673     C      0.513880000000     0.224460000000     0.761060000000    -0.00081612 
C674     C      0.494000000000     0.243940000000     0.777340000000    -0.0895972  
C675     C      0.974130000000     0.263410000000     0.761050000000    -0.00132685 
C676     C      0.974530000000     0.263810000000     0.728890000000     0.000498468
C677     C      0.494010000000     0.243930000000     0.712610000000    -0.089699   
C678     C      0.513490000000     0.224060000000     0.728900000000    -0.000737944
C679     C      0.974200000000     0.474420000000     0.761050000000    -0.00134967 
C680     C      0.494000000000     0.993970000000     0.777340000000    -0.0968258  
C681     C      0.513800000000     0.013530000000     0.761070000000     0.00608387 
C682     C      0.513410000000     0.013940000000     0.728910000000     0.00399371 
C683     C      0.494010000000     0.993990000000     0.712610000000    -0.0940514  
C684     C      0.974600000000     0.474040000000     0.728890000000     0.000388668
C685     C      0.522480000000     0.385000000000     0.869250000000    -0.00257651 
C686     C      0.494680000000     0.401410000000     0.869670000000    -0.0892623  
C687     C      0.466900000000     0.384980000000     0.870070000000    -0.002863   
C688     C      0.466900000000     0.352920000000     0.870080000000    -0.00277545 
C689     C      0.494680000000     0.336470000000     0.869670000000    -0.089399   
C690     C      0.522480000000     0.352890000000     0.869250000000    -0.00251634 
C691     C      0.521060000000     0.102920000000     0.870110000000    -0.0029133  
C692     C      0.493290000000     0.086480000000     0.869690000000    -0.0879219  
C693     C      0.965490000000     0.102890000000     0.869270000000    -0.00257382 
C694     C      0.965490000000     0.135000000000     0.869270000000    -0.00189137 
C695     C      0.493290000000     0.151420000000     0.869690000000    -0.0893915  
C696     C      0.521070000000     0.134980000000     0.870110000000    -0.00233781 
C697     C      0.724070000000     0.263420000000     0.228900000000    -0.000947104
C698     C      0.743950000000     0.243940000000     0.212610000000    -0.089616   
C699     C      0.763820000000     0.224460000000     0.228890000000    -0.000893934
C700     C      0.763430000000     0.224070000000     0.261050000000    -0.000689244
C701     C      0.743960000000     0.243940000000     0.277340000000    -0.0898715  
C702     C      0.724480000000     0.263810000000     0.261050000000    -0.000705437
C703     C      0.716160000000     0.243950000000     0.011050000000    -0.00246394 
C704     C      0.743950000000     0.243960000000     0.027510000000    -0.0890167  
C705     C      0.771740000000     0.243960000000     0.011050000000    -0.0024555  
C706     C      0.771740000000     0.243950000000     0.978900000000    -0.00232069 
C707     C      0.743960000000     0.243950000000     0.962430000000    -0.0891984  
C708     C      0.716170000000     0.243960000000     0.978890000000    -0.00232201 
C709     C      0.724080000000     0.013460000000     0.228890000000     0.00607816 
C710     C      0.743950000000     0.993980000000     0.212610000000    -0.0969187  
C711     C      0.763830000000     0.474510000000     0.228900000000    -0.000863348
C712     C      0.763440000000     0.474130000000     0.261050000000    -0.000850872
C713     C      0.743960000000     0.994010000000     0.277340000000    -0.094082   
C714     C      0.724480000000     0.013870000000     0.261050000000     0.00399808 
C715     C      0.716160000000     0.493930000000     0.011050000000    -0.00250573 
C716     C      0.743950000000     0.993930000000     0.027510000000    -0.0895537  
C717     C      0.771740000000     0.993940000000     0.011050000000    -0.00289523 
C718     C      0.771740000000     0.993930000000     0.978900000000    -0.0028351  
C719     C      0.743960000000     0.493930000000     0.962430000000    -0.0891693  
C720     C      0.716170000000     0.493940000000     0.978890000000    -0.00243028 
C721     C      0.716180000000     0.352880000000     0.120290000000    -0.0026858  
C722     C      0.744000000000     0.336480000000     0.120290000000    -0.0894232  
C723     C      0.771760000000     0.352940000000     0.120300000000    -0.00259626 
C724     C      0.771710000000     0.385020000000     0.120290000000    -0.00271052 
C725     C      0.743890000000     0.401420000000     0.120290000000    -0.0893917  
C726     C      0.716130000000     0.384970000000     0.120300000000    -0.00260833 
C727     C      0.716180000000     0.102880000000     0.120270000000    -0.0028473  
C728     C      0.744000000000     0.086480000000     0.120270000000    -0.0880196  
C729     C      0.771760000000     0.102940000000     0.120280000000    -0.00273795 
C730     C      0.771710000000     0.135020000000     0.120270000000    -0.00220962 
C731     C      0.743890000000     0.151420000000     0.120270000000    -0.0894243  
C732     C      0.716130000000     0.134970000000     0.120280000000    -0.00211317 
C733     C      0.513830000000     0.224470000000     0.228900000000    -0.000785251
C734     C      0.493960000000     0.243950000000     0.212610000000    -0.0897109  
C735     C      0.974090000000     0.263420000000     0.228900000000    -0.00135052 
C736     C      0.974490000000     0.263820000000     0.261060000000     0.0003972  
C737     C      0.493960000000     0.243940000000     0.277340000000    -0.0896649  
C738     C      0.513440000000     0.224070000000     0.261050000000    -0.000844761
C739     C      0.966180000000     0.243690000000     0.011060000000    -0.00224225 
C740     C      0.493970000000     0.243960000000     0.027520000000    -0.0890993  
C741     C      0.521750000000     0.244230000000     0.011060000000    -0.00233685 
C742     C      0.521760000000     0.244230000000     0.978910000000    -0.0024993  
C743     C      0.493970000000     0.243960000000     0.962440000000    -0.0889659  
C744     C      0.966180000000     0.243690000000     0.978900000000    -0.00228275 
C745     C      0.974090000000     0.013470000000     0.228890000000     0.00550327 
C746     C      0.493960000000     0.493980000000     0.212610000000    -0.0896994  
C747     C      0.513840000000     0.474510000000     0.228900000000    -0.000891075
C748     C      0.513440000000     0.474130000000     0.261060000000    -0.000846738
C749     C      0.493970000000     0.494010000000     0.277340000000    -0.0896144  
C750     C      0.974490000000     0.013880000000     0.261050000000     0.00519803 
C751     C      0.521750000000     0.494030000000     0.011060000000    -0.00242374 
C752     C      0.493970000000     0.993940000000     0.027520000000    -0.0896107  
C753     C      0.966180000000     0.993850000000     0.011050000000    -0.00270712 
C754     C      0.966180000000     0.993850000000     0.978900000000    -0.00273803 
C755     C      0.493970000000     0.993930000000     0.962440000000    -0.0896008  
C756     C      0.521760000000     0.494020000000     0.978900000000    -0.00251698 
C757     C      0.966140000000     0.384970000000     0.120310000000    -0.00245886 
C758     C      0.493900000000     0.401430000000     0.120300000000    -0.0894443  
C759     C      0.521720000000     0.385030000000     0.120300000000    -0.00265241 
C760     C      0.521770000000     0.352940000000     0.120310000000    -0.0026532  
C761     C      0.494010000000     0.336490000000     0.120300000000    -0.0893733  
C762     C      0.966190000000     0.352890000000     0.120300000000    -0.00255699 
C763     C      0.521780000000     0.102940000000     0.120280000000    -0.00276207 
C764     C      0.494020000000     0.086490000000     0.120270000000    -0.0879881  
C765     C      0.966200000000     0.102890000000     0.120280000000    -0.00271366 
C766     C      0.966150000000     0.134970000000     0.120290000000    -0.00195467 
C767     C      0.493910000000     0.151430000000     0.120280000000    -0.0894387  
C768     C      0.521730000000     0.135030000000     0.120280000000    -0.00221352 
C769     C      0.493960000000     0.993970000000     0.178770000000     0.380104   
C770     C      0.493960000000     0.493940000000     0.061620000000     0.378806   
C771     C      0.993890000000     0.935450000000     0.120280000000     0.372057   
C772     C      0.994030000000     0.552470000000     0.120260000000     0.37253    
C773     C      0.493960000000     0.743950000000     0.178770000000     0.379084   
C774     C      0.493960000000     0.743960000000     0.061620000000     0.378812   
C775     C      0.493900000000     0.685450000000     0.120260000000     0.378466   
C776     C      0.494020000000     0.802470000000     0.120270000000     0.378419   
C777     C      0.744010000000     0.552460000000     0.120250000000     0.378546   
C778     C      0.743880000000     0.935440000000     0.120270000000     0.378043   
C779     C      0.743950000000     0.493970000000     0.178760000000     0.379351   
C780     C      0.743950000000     0.493940000000     0.061610000000     0.378808   
C781     C      0.743880000000     0.685440000000     0.120250000000     0.378517   
C782     C      0.744010000000     0.802460000000     0.120270000000     0.378518   
C783     C      0.743950000000     0.743960000000     0.061610000000     0.37882    
C784     C      0.743950000000     0.743950000000     0.178760000000     0.37935    
C785     C      0.494520000000     0.935440000000     0.869690000000     0.378098   
C786     C      0.493450000000     0.552450000000     0.869700000000     0.378484   
C787     C      0.493980000000     0.493940000000     0.928340000000     0.378914   
C788     C      0.493990000000     0.493960000000     0.811190000000     0.379209   
C789     C      0.494520000000     0.802450000000     0.869690000000     0.378422   
C790     C      0.493450000000     0.685440000000     0.869700000000     0.378394   
C791     C      0.493980000000     0.743950000000     0.928340000000     0.378694   
C792     C      0.493990000000     0.743940000000     0.811190000000     0.37921    
C793     C      0.743990000000     0.993960000000     0.811180000000     0.380396   
C794     C      0.743960000000     0.993930000000     0.928330000000     0.378139   
C795     C      0.743910000000     0.552450000000     0.869690000000     0.378567   
C796     C      0.744040000000     0.935430000000     0.869670000000     0.377765   
C797     C      0.743990000000     0.743940000000     0.811180000000     0.379384   
C798     C      0.743960000000     0.743950000000     0.928340000000     0.37882    
C799     C      0.744040000000     0.685430000000     0.869690000000     0.3782     
C800     C      0.743910000000     0.802450000000     0.869680000000     0.37856    
C801     C      0.935460000000     0.993960000000     0.369690000000     0.372112   
C802     C      0.552480000000     0.994090000000     0.369690000000     0.372689   
C803     C      0.493980000000     0.994040000000     0.428340000000     0.372813   
C804     C      0.493970000000     0.994020000000     0.311190000000     0.372967   
C805     C      0.493970000000     0.743940000000     0.311180000000     0.378908   
C806     C      0.493980000000     0.743940000000     0.428340000000     0.378794   
C807     C      0.552480000000     0.744000000000     0.369690000000     0.378512   
C808     C      0.935460000000     0.743870000000     0.369690000000     0.378036   
C809     C      0.743980000000     0.494040000000     0.428330000000     0.378851   
C810     C      0.743970000000     0.494020000000     0.311180000000     0.379042   
C811     C      0.802480000000     0.494090000000     0.369680000000     0.378449   
C812     C      0.685460000000     0.493960000000     0.369690000000     0.378471   
C813     C      0.802480000000     0.744010000000     0.369680000000     0.378536   
C814     C      0.685460000000     0.743870000000     0.369690000000     0.378435   
C815     C      0.743960000000     0.743940000000     0.311180000000     0.379132   
C816     C      0.743980000000     0.743940000000     0.428330000000     0.37878    
C817     C      0.494010000000     0.494030000000     0.561610000000     0.378488   
C818     C      0.494010000000     0.494000000000     0.678770000000     0.37898    
C819     C      0.935500000000     0.494080000000     0.620270000000     0.378042   
C820     C      0.552520000000     0.493960000000     0.620260000000     0.37848    
C821     C      0.552520000000     0.744460000000     0.620260000000     0.378779   
C822     C      0.935500000000     0.743400000000     0.620260000000     0.377857   
C823     C      0.494010000000     0.743930000000     0.678770000000     0.379174   
C824     C      0.994010000000     0.743930000000     0.561610000000     0.378123   
C825     C      0.744010000000     0.994010000000     0.678760000000     0.372848   
C826     C      0.744010000000     0.994030000000     0.561610000000     0.372827   
C827     C      0.685500000000     0.994090000000     0.620260000000     0.372533   
C828     C      0.802520000000     0.993950000000     0.620260000000     0.372574   
C829     C      0.744010000000     0.743930000000     0.678760000000     0.37928    
C830     C      0.744010000000     0.743930000000     0.561610000000     0.378941   
C831     C      0.685510000000     0.744470000000     0.620250000000     0.37872    
C832     C      0.802520000000     0.743400000000     0.620250000000     0.378472   
C833     C      0.885040000000     0.771010000000     0.619860000000    -0.00282708 
C834     C      0.901480000000     0.743240000000     0.620270000000    -0.0892273  
C835     C      0.885070000000     0.715440000000     0.620690000000    -0.00258468 
C836     C      0.852960000000     0.715440000000     0.620690000000    -0.00249059 
C837     C      0.836540000000     0.743240000000     0.620270000000    -0.0893737  
C838     C      0.852980000000     0.771010000000     0.619860000000    -0.00274923 
C839     C      0.602980000000     0.716850000000     0.619860000000    -0.00268877 
C840     C      0.586540000000     0.744620000000     0.620270000000    -0.0894801  
C841     C      0.602960000000     0.772420000000     0.620690000000    -0.00246254 
C842     C      0.635070000000     0.772420000000     0.620690000000    -0.00249916 
C843     C      0.651480000000     0.744630000000     0.620270000000    -0.089347   
C844     C      0.635040000000     0.716850000000     0.619860000000    -0.00280101 
C845     C      0.885030000000     0.521830000000     0.620300000000    -0.00264337 
C846     C      0.901480000000     0.494070000000     0.620280000000    -0.0893197  
C847     C      0.885080000000     0.966260000000     0.620280000000    -0.00251763 
C848     C      0.853000000000     0.966200000000     0.620290000000    -0.00252305 
C849     C      0.836540000000     0.993970000000     0.620280000000    -0.0943235  
C850     C      0.852940000000     0.521780000000     0.620290000000    -0.00259474 
C851     C      0.602940000000     0.521780000000     0.620290000000    -0.00261287 
C852     C      0.586540000000     0.493970000000     0.620280000000    -0.0894259  
C853     C      0.603000000000     0.966210000000     0.620280000000    -0.00240028 
C854     C      0.635080000000     0.966260000000     0.620270000000    -0.00243857 
C855     C      0.651480000000     0.994070000000     0.620280000000    -0.0942327  
C856     C      0.635030000000     0.521840000000     0.620300000000    -0.00271078 
C857     C      0.743900000000     0.716150000000     0.478890000000    -0.00246979 
C858     C      0.743990000000     0.743940000000     0.462430000000    -0.0890995  
C859     C      0.744080000000     0.771720000000     0.478890000000    -0.00244433 
C860     C      0.744090000000     0.771720000000     0.511050000000    -0.00243997 
C861     C      0.744010000000     0.743930000000     0.527510000000    -0.0891576  
C862     C      0.743920000000     0.716150000000     0.511050000000    -0.0024102  
C863     C      0.743990000000     0.966250000000     0.478890000000    -0.00228621 
C864     C      0.743990000000     0.494040000000     0.462430000000    -0.0891366  
C865     C      0.744000000000     0.521830000000     0.478890000000    -0.00243835 
C866     C      0.744000000000     0.521830000000     0.511050000000    -0.00250959 
C867     C      0.744010000000     0.994040000000     0.527510000000    -0.0939895  
C868     C      0.744010000000     0.966250000000     0.511050000000    -0.00231146 
C869     C      0.993720000000     0.716150000000     0.478900000000    -0.00280607 
C870     C      0.493990000000     0.743930000000     0.462430000000    -0.0892342  
C871     C      0.494260000000     0.771720000000     0.478900000000    -0.00243725 
C872     C      0.494270000000     0.771720000000     0.511050000000    -0.00247738 
C873     C      0.494000000000     0.743930000000     0.527510000000    -0.0891428  
C874     C      0.993730000000     0.716150000000     0.511050000000    -0.00286192 
C875     C      0.885040000000     0.771700000000     0.369670000000    -0.00270092 
C876     C      0.901440000000     0.743890000000     0.369670000000    -0.089239   
C877     C      0.884990000000     0.716120000000     0.369650000000    -0.00278441 
C878     C      0.852900000000     0.716180000000     0.369660000000    -0.00253383 
C879     C      0.836500000000     0.743990000000     0.369660000000    -0.0894479  
C880     C      0.852960000000     0.771750000000     0.369650000000    -0.0025858  
C881     C      0.635040000000     0.771700000000     0.369670000000    -0.00269776 
C882     C      0.651440000000     0.743880000000     0.369670000000    -0.0893563  
C883     C      0.634990000000     0.716120000000     0.369660000000    -0.00259343 
C884     C      0.602900000000     0.716170000000     0.369670000000    -0.00266732 
C885     C      0.586500000000     0.743990000000     0.369670000000    -0.0893914  
C886     C      0.602960000000     0.771750000000     0.369650000000    -0.00257649 
C887     C      0.493980000000     0.966250000000     0.478900000000    -0.00236233 
C888     C      0.493980000000     0.994040000000     0.462440000000    -0.0939795  
C889     C      0.994000000000     0.521830000000     0.478900000000    -0.002905   
C890     C      0.993990000000     0.521830000000     0.511050000000    -0.00289598 
C891     C      0.494000000000     0.494040000000     0.527520000000    -0.0891123  
C892     C      0.494000000000     0.966250000000     0.511050000000    -0.00221722 
C893     C      0.885040000000     0.521790000000     0.369660000000    -0.00272124 
C894     C      0.901440000000     0.993970000000     0.369670000000    -0.0942367  
C895     C      0.884990000000     0.966210000000     0.369660000000    -0.00246114 
C896     C      0.852900000000     0.966260000000     0.369670000000    -0.00258892 
C897     C      0.836510000000     0.494080000000     0.369660000000    -0.0892849  
C898     C      0.852960000000     0.521840000000     0.369640000000    -0.00264546 
C899     C      0.602900000000     0.966260000000     0.369670000000    -0.00252749 
C900     C      0.586500000000     0.994080000000     0.369670000000    -0.094276   
C901     C      0.602960000000     0.521840000000     0.369650000000    -0.00257617 
C902     C      0.635050000000     0.521790000000     0.369660000000    -0.00270114 
C903     C      0.651440000000     0.493970000000     0.369670000000    -0.0893842  
C904     C      0.634990000000     0.966210000000     0.369660000000    -0.00242156 
C905     C      0.724450000000     0.724130000000     0.728890000000    -0.000850704
C906     C      0.744010000000     0.743930000000     0.712600000000    -0.0896841  
C907     C      0.763560000000     0.763730000000     0.728890000000    -0.000830728
C908     C      0.763950000000     0.763330000000     0.761050000000    -0.000775242
C909     C      0.743990000000     0.743930000000     0.777340000000    -0.0897893  
C910     C      0.724050000000     0.724530000000     0.761050000000    -0.000705428
C911     C      0.763870000000     0.513450000000     0.761060000000    -0.000743454
C912     C      0.743990000000     0.993970000000     0.777340000000    -0.0970759  
C913     C      0.724120000000     0.974500000000     0.761040000000     0.00053551 
C914     C      0.724520000000     0.974110000000     0.728880000000    -0.00153794 
C915     C      0.744000000000     0.993990000000     0.712610000000    -0.0939241  
C916     C      0.763480000000     0.513860000000     0.728900000000    -0.000991875
C917     C      0.771790000000     0.884960000000     0.869640000000    -0.00274874 
C918     C      0.744030000000     0.901410000000     0.869650000000    -0.0891512  
C919     C      0.716210000000     0.885010000000     0.869650000000    -0.00276562 
C920     C      0.716160000000     0.852930000000     0.869640000000    -0.00250452 
C921     C      0.743920000000     0.836470000000     0.869660000000    -0.0894219  
C922     C      0.771740000000     0.852870000000     0.869660000000    -0.00267985 
C923     C      0.771730000000     0.602870000000     0.869690000000    -0.00251199 
C924     C      0.743920000000     0.586470000000     0.869680000000    -0.089457   
C925     C      0.716160000000     0.602930000000     0.869660000000    -0.00259855 
C926     C      0.716210000000     0.635010000000     0.869670000000    -0.00270578 
C927     C      0.744020000000     0.651410000000     0.869680000000    -0.0892438  
C928     C      0.771790000000     0.634960000000     0.869670000000    -0.00269969 
C929     C      0.513880000000     0.724460000000     0.761060000000    -0.000829749
C930     C      0.494000000000     0.743940000000     0.777340000000    -0.0896244  
C931     C      0.974130000000     0.763410000000     0.761050000000    -0.00131117 
C932     C      0.974530000000     0.763810000000     0.728890000000     0.00047068 
C933     C      0.494010000000     0.743930000000     0.712610000000    -0.0896997  
C934     C      0.513490000000     0.724060000000     0.728900000000    -0.000768906
C935     C      0.974200000000     0.974420000000     0.761050000000    -0.000116799
C936     C      0.494000000000     0.493970000000     0.777340000000    -0.0896527  
C937     C      0.513800000000     0.513530000000     0.761070000000    -0.000825235
C938     C      0.513410000000     0.513940000000     0.728910000000    -0.000828393
C939     C      0.494010000000     0.494000000000     0.712610000000    -0.0896281  
C940     C      0.974600000000     0.974040000000     0.728890000000    -0.000103852
C941     C      0.522480000000     0.885000000000     0.869250000000    -0.00254227 
C942     C      0.494680000000     0.901420000000     0.869670000000    -0.0892929  
C943     C      0.466900000000     0.884980000000     0.870070000000    -0.00282085 
C944     C      0.466900000000     0.852920000000     0.870080000000    -0.00283231 
C945     C      0.494680000000     0.836480000000     0.869670000000    -0.0892554  
C946     C      0.522480000000     0.852890000000     0.869250000000    -0.00256628 
C947     C      0.521060000000     0.602920000000     0.870110000000    -0.00269518 
C948     C      0.493290000000     0.586480000000     0.869690000000    -0.0893432  
C949     C      0.965490000000     0.602890000000     0.869270000000    -0.00237729 
C950     C      0.965490000000     0.635000000000     0.869270000000    -0.00242951 
C951     C      0.493290000000     0.651410000000     0.869690000000    -0.0892116  
C952     C      0.521070000000     0.634970000000     0.870110000000    -0.00287348 
C953     C      0.724070000000     0.763420000000     0.228900000000    -0.000917236
C954     C      0.743950000000     0.743940000000     0.212610000000    -0.08966    
C955     C      0.763820000000     0.724460000000     0.228890000000    -0.000867943
C956     C      0.763430000000     0.724070000000     0.261050000000    -0.000782463
C957     C      0.743960000000     0.743940000000     0.277340000000    -0.089736   
C958     C      0.724480000000     0.763810000000     0.261050000000    -0.000768416
C959     C      0.716160000000     0.743950000000     0.011050000000    -0.00251075 
C960     C      0.743950000000     0.743960000000     0.027510000000    -0.0890712  
C961     C      0.771740000000     0.743960000000     0.011050000000    -0.00250226 
C962     C      0.771740000000     0.743950000000     0.978900000000    -0.00236856 
C963     C      0.743960000000     0.743950000000     0.962430000000    -0.0892508  
C964     C      0.716170000000     0.743960000000     0.978890000000    -0.00237004 
C965     C      0.724080000000     0.513460000000     0.228890000000    -0.000831953
C966     C      0.743950000000     0.493980000000     0.212610000000    -0.0897137  
C967     C      0.763830000000     0.974510000000     0.228900000000     0.000463919
C968     C      0.763440000000     0.974120000000     0.261050000000    -0.00147761 
C969     C      0.743960000000     0.494000000000     0.277340000000    -0.089699   
C970     C      0.724480000000     0.513870000000     0.261050000000    -0.000858858
C971     C      0.716160000000     0.993930000000     0.011050000000    -0.00290732 
C972     C      0.743950000000     0.493930000000     0.027510000000    -0.0891071  
C973     C      0.771740000000     0.493940000000     0.011050000000    -0.00249519 
C974     C      0.771740000000     0.493930000000     0.978900000000    -0.00243468 
C975     C      0.743960000000     0.993930000000     0.962430000000    -0.089617   
C976     C      0.716170000000     0.993930000000     0.978890000000    -0.00282934 
C977     C      0.716180000000     0.852880000000     0.120290000000    -0.00266917 
C978     C      0.744000000000     0.836480000000     0.120290000000    -0.0894071  
C979     C      0.771760000000     0.852930000000     0.120300000000    -0.00257788 
C980     C      0.771710000000     0.885020000000     0.120290000000    -0.00275254 
C981     C      0.743890000000     0.901420000000     0.120290000000    -0.0892699  
C982     C      0.716130000000     0.884970000000     0.120300000000    -0.00265705 
C983     C      0.716180000000     0.602880000000     0.120270000000    -0.00266927 
C984     C      0.744000000000     0.586480000000     0.120270000000    -0.0894062  
C985     C      0.771760000000     0.602940000000     0.120280000000    -0.00257577 
C986     C      0.771710000000     0.635020000000     0.120270000000    -0.00268774 
C987     C      0.743890000000     0.651420000000     0.120270000000    -0.0893791  
C988     C      0.716130000000     0.634970000000     0.120280000000    -0.00258533 
C989     C      0.513830000000     0.724470000000     0.228900000000    -0.000799001
C990     C      0.493960000000     0.743950000000     0.212610000000    -0.0897321  
C991     C      0.974090000000     0.763420000000     0.228900000000    -0.00134351 
C992     C      0.974490000000     0.763820000000     0.261060000000     0.00039317 
C993     C      0.493960000000     0.743940000000     0.277340000000    -0.0896586  
C994     C      0.513440000000     0.724070000000     0.261050000000    -0.000874942
C995     C      0.966180000000     0.743690000000     0.011060000000    -0.00228998 
C996     C      0.493970000000     0.743960000000     0.027520000000    -0.0891537  
C997     C      0.521750000000     0.744230000000     0.011060000000    -0.00238411 
C998     C      0.521760000000     0.744230000000     0.978910000000    -0.00254644 
C999     C      0.493970000000     0.743960000000     0.962440000000    -0.0890206  
C1000    C      0.966180000000     0.743690000000     0.978900000000    -0.00233034 
C1001    C      0.974090000000     0.513470000000     0.228890000000    -0.0013846  
C1002    C      0.493960000000     0.993980000000     0.212610000000    -0.0968859  
C1003    C      0.513840000000     0.974510000000     0.228900000000     0.000388365
C1004    C      0.513440000000     0.974130000000     0.261060000000    -0.00138276 
C1005    C      0.493970000000     0.994010000000     0.277340000000    -0.0940331  
C1006    C      0.974490000000     0.513880000000     0.261050000000     0.000358123
C1007    C      0.521750000000     0.994030000000     0.011060000000    -0.0028225  
C1008    C      0.493970000000     0.493940000000     0.027520000000    -0.0891597  
C1009    C      0.966180000000     0.493850000000     0.011050000000    -0.00230792 
C1010    C      0.966180000000     0.493850000000     0.978900000000    -0.00233871 
C1011    C      0.493970000000     0.493930000000     0.962440000000    -0.0891537  
C1012    C      0.521760000000     0.994020000000     0.978900000000    -0.00291975 
C1013    C      0.966140000000     0.884970000000     0.120310000000    -0.00258345 
C1014    C      0.493900000000     0.901420000000     0.120300000000    -0.0891725  
C1015    C      0.521720000000     0.885030000000     0.120300000000    -0.00276922 
C1016    C      0.521770000000     0.852940000000     0.120310000000    -0.00258777 
C1017    C      0.494010000000     0.836490000000     0.120300000000    -0.0893979  
C1018    C      0.966190000000     0.852890000000     0.120300000000    -0.00249504 
C1019    C      0.521780000000     0.602940000000     0.120280000000    -0.00257383 
C1020    C      0.494020000000     0.586490000000     0.120270000000    -0.0893918  
C1021    C      0.966200000000     0.602890000000     0.120280000000    -0.00250734 
C1022    C      0.966150000000     0.634970000000     0.120290000000    -0.0024805  
C1023    C      0.493910000000     0.651420000000     0.120280000000    -0.0892679  
C1024    C      0.521730000000     0.635030000000     0.120280000000    -0.00273709 
H1       H      0.396910000000     0.292860000000     0.619540000000     0.0444363  
H2       H      0.396990000000     0.193620000000     0.621020000000     0.0449097  
H3       H      0.341030000000     0.193620000000     0.621020000000     0.044864   
H4       H      0.341120000000     0.292860000000     0.619530000000     0.0444819  
H5       H      0.091120000000     0.195000000000     0.619530000000     0.0454127  
H6       H      0.091030000000     0.294240000000     0.621020000000     0.0457254  
H7       H      0.146990000000     0.294240000000     0.621020000000     0.0449634  
H8       H      0.146910000000     0.195000000000     0.619530000000     0.0447843  
H9       H      0.396900000000     0.043680000000     0.620300000000     0.044387   
H10      H      0.397000000000     0.444430000000     0.620280000000     0.0443933  
H11      H      0.341120000000     0.444360000000     0.620280000000     0.0445735  
H12      H      0.341020000000     0.043610000000     0.620290000000     0.044227   
H13      H      0.091020000000     0.043610000000     0.620300000000     0.0448499  
H14      H      0.091120000000     0.444360000000     0.620270000000     0.0457272  
H15      H      0.147000000000     0.444430000000     0.620270000000     0.0448821  
H16      H      0.146900000000     0.043690000000     0.620300000000     0.0443691  
H17      H      0.243830000000     0.194310000000     0.466970000000     0.0447919  
H18      H      0.244150000000     0.293560000000     0.466970000000     0.0446775  
H19      H      0.244160000000     0.293560000000     0.522970000000     0.0446748  
H20      H      0.243850000000     0.194310000000     0.522960000000     0.0447891  
H21      H      0.243990000000     0.444410000000     0.466970000000     0.0446799  
H22      H      0.243990000000     0.043660000000     0.466980000000     0.0442804  
H23      H      0.244000000000     0.043660000000     0.522970000000     0.04428    
H24      H      0.244010000000     0.444410000000     0.522970000000     0.0446936  
H25      H      0.493500000000     0.194310000000     0.466980000000     0.044685   
H26      H      0.994470000000     0.293560000000     0.466980000000     0.0439345  
H27      H      0.994490000000     0.293550000000     0.522970000000     0.0439907  
H28      H      0.493520000000     0.194310000000     0.522970000000     0.0447003  
H29      H      0.396960000000     0.293530000000     0.369670000000     0.0445655  
H30      H      0.396860000000     0.194280000000     0.369650000000     0.0447506  
H31      H      0.340980000000     0.194350000000     0.369650000000     0.0446615  
H32      H      0.341080000000     0.293610000000     0.369660000000     0.0446214  
H33      H      0.146960000000     0.293520000000     0.369660000000     0.0447685  
H34      H      0.146860000000     0.194270000000     0.369660000000     0.0449376  
H35      H      0.090980000000     0.194350000000     0.369670000000     0.0455878  
H36      H      0.091080000000     0.293600000000     0.369660000000     0.0455554  
H37      H      0.993980000000     0.444410000000     0.466980000000     0.0439639  
H38      H      0.493990000000     0.043660000000     0.466980000000     0.0442013  
H39      H      0.494000000000     0.043660000000     0.522980000000     0.0441585  
H40      H      0.994000000000     0.444410000000     0.522970000000     0.0439884  
H41      H      0.396960000000     0.043620000000     0.369660000000     0.0441188  
H42      H      0.396860000000     0.444360000000     0.369670000000     0.0446125  
H43      H      0.340980000000     0.444440000000     0.369670000000     0.0445744  
H44      H      0.341090000000     0.043690000000     0.369640000000     0.0442562  
H45      H      0.090990000000     0.444440000000     0.369670000000     0.0454653  
H46      H      0.091090000000     0.043690000000     0.369650000000     0.0451663  
H47      H      0.146960000000     0.043620000000     0.369660000000     0.0443451  
H48      H      0.146860000000     0.444360000000     0.369670000000     0.0448389  
H49      H      0.209110000000     0.208760000000     0.716730000000     0.041474   
H50      H      0.278910000000     0.279100000000     0.716740000000     0.0412561  
H51      H      0.279430000000     0.278560000000     0.773210000000     0.0412362  
H52      H      0.208560000000     0.209300000000     0.773200000000     0.0414313  
H53      H      0.279300000000     0.028730000000     0.773230000000     0.041456   
H54      H      0.208690000000     0.459210000000     0.773180000000     0.041526   
H55      H      0.209240000000     0.458690000000     0.716720000000     0.0416011  
H56      H      0.278760000000     0.029300000000     0.716760000000     0.0416376  
H57      H      0.293640000000     0.396830000000     0.869650000000     0.0445429  
H58      H      0.194390000000     0.396930000000     0.869640000000     0.0448135  
H59      H      0.194310000000     0.341060000000     0.869640000000     0.044896   
H60      H      0.293560000000     0.340950000000     0.869660000000     0.0444169  
H61      H      0.293560000000     0.090950000000     0.869690000000     0.0455526  
H62      H      0.194310000000     0.091050000000     0.869650000000     0.0455698  
H63      H      0.194380000000     0.146930000000     0.869660000000     0.0447294  
H64      H      0.293640000000     0.146830000000     0.869680000000     0.0449848  
H65      H      0.029300000000     0.209170000000     0.773220000000     0.0414298  
H66      H      0.458700000000     0.278700000000     0.773200000000     0.0411873  
H67      H      0.459240000000     0.279240000000     0.716740000000     0.0411753  
H68      H      0.028770000000     0.208630000000     0.716750000000     0.0412829  
H69      H      0.458830000000     0.459070000000     0.773190000000     0.0412391  
H70      H      0.029170000000     0.028870000000     0.773230000000     0.0414217  
H71      H      0.028630000000     0.029430000000     0.716760000000     0.0414521  
H72      H      0.459380000000     0.458560000000     0.716730000000     0.0412547  
H73      H      0.544300000000     0.396930000000     0.868930000000     0.0447739  
H74      H      0.945050000000     0.396840000000     0.870400000000     0.0443218  
H75      H      0.945050000000     0.341050000000     0.870400000000     0.0442737  
H76      H      0.544300000000     0.340970000000     0.868930000000     0.0448061  
H77      H      0.042920000000     0.091050000000     0.870440000000     0.0449091  
H78      H      0.443670000000     0.090970000000     0.868940000000     0.0456644  
H79      H      0.443680000000     0.146930000000     0.868940000000     0.0450242  
H80      H      0.042920000000     0.146840000000     0.870440000000     0.0442149  
H81      H      0.208640000000     0.278700000000     0.216740000000     0.0415007  
H82      H      0.279250000000     0.209180000000     0.216730000000     0.0414973  
H83      H      0.278720000000     0.208640000000     0.273200000000     0.0414361  
H84      H      0.209190000000     0.279240000000     0.273210000000     0.0414429  
H85      H      0.194320000000     0.243950000000     0.022960000000     0.044806   
H86      H      0.293570000000     0.243960000000     0.022970000000     0.0447092  
H87      H      0.293580000000     0.243950000000     0.966980000000     0.0446514  
H88      H      0.194330000000     0.243960000000     0.966970000000     0.0447641  
H89      H      0.208650000000     0.028740000000     0.216730000000     0.0415085  
H90      H      0.279250000000     0.459220000000     0.216740000000     0.0413648  
H91      H      0.278720000000     0.458700000000     0.273210000000     0.0413555  
H92      H      0.209200000000     0.029310000000     0.273200000000     0.0416645  
H93      H      0.194320000000     0.493930000000     0.022960000000     0.0447067  
H94      H      0.293580000000     0.993940000000     0.022970000000     0.0439661  
H95      H      0.293580000000     0.993930000000     0.966980000000     0.0439479  
H96      H      0.194330000000     0.493930000000     0.966970000000     0.0446916  
H97      H      0.194360000000     0.340960000000     0.120290000000     0.0446873  
H98      H      0.293610000000     0.341060000000     0.120300000000     0.0446217  
H99      H      0.293530000000     0.396940000000     0.120300000000     0.0445612  
H100     H      0.194280000000     0.396840000000     0.120300000000     0.0447496  
H101     H      0.194360000000     0.090960000000     0.120270000000     0.0455761  
H102     H      0.293610000000     0.091060000000     0.120280000000     0.0455469  
H103     H      0.293530000000     0.146940000000     0.120270000000     0.0447856  
H104     H      0.194280000000     0.146840000000     0.120280000000     0.0449613  
H105     H      0.029260000000     0.209180000000     0.216740000000     0.041655   
H106     H      0.458660000000     0.278710000000     0.216750000000     0.0413526  
H107     H      0.459200000000     0.279240000000     0.273220000000     0.0413657  
H108     H      0.028730000000     0.208640000000     0.273210000000     0.0415225  
H109     H      0.444340000000     0.243480000000     0.022970000000     0.0446775  
H110     H      0.043590000000     0.244450000000     0.022980000000     0.044251   
H111     H      0.043590000000     0.244440000000     0.966990000000     0.0442967  
H112     H      0.444350000000     0.243470000000     0.966980000000     0.0447122  
H113     H      0.458660000000     0.028750000000     0.216730000000     0.0414001  
H114     H      0.029260000000     0.459220000000     0.216750000000     0.0415541  
H115     H      0.028730000000     0.458700000000     0.273220000000     0.0414023  
H116     H      0.459210000000     0.029310000000     0.273200000000     0.0415532  
H117     H      0.043590000000     0.494090000000     0.022980000000     0.0441662  
H118     H      0.444340000000     0.993780000000     0.022970000000     0.0439641  
H119     H      0.444350000000     0.993780000000     0.966980000000     0.0439812  
H120     H      0.043600000000     0.494080000000     0.966990000000     0.0441796  
H121     H      0.444290000000     0.396850000000     0.120310000000     0.0446163  
H122     H      0.043550000000     0.396940000000     0.120310000000     0.0441255  
H123     H      0.043620000000     0.341070000000     0.120310000000     0.0442535  
H124     H      0.444370000000     0.340970000000     0.120300000000     0.0445771  
H125     H      0.043630000000     0.091070000000     0.120280000000     0.0451587  
H126     H      0.444380000000     0.090970000000     0.120280000000     0.0454707  
H127     H      0.444300000000     0.146840000000     0.120290000000     0.0448479  
H128     H      0.043550000000     0.146940000000     0.120280000000     0.0443682  
H129     H      0.396910000000     0.792860000000     0.619540000000     0.0444428  
H130     H      0.396990000000     0.693620000000     0.621020000000     0.0448163  
H131     H      0.341030000000     0.693620000000     0.621020000000     0.0447744  
H132     H      0.341120000000     0.792860000000     0.619530000000     0.0444872  
H133     H      0.091120000000     0.695000000000     0.619530000000     0.045327   
H134     H      0.091030000000     0.794240000000     0.621020000000     0.0457337  
H135     H      0.146990000000     0.794240000000     0.621020000000     0.0449639  
H136     H      0.146910000000     0.695000000000     0.619530000000     0.0447035  
H137     H      0.396900000000     0.543680000000     0.620300000000     0.0447997  
H138     H      0.397000000000     0.944430000000     0.620280000000     0.0442192  
H139     H      0.341120000000     0.944350000000     0.620280000000     0.0443555  
H140     H      0.341020000000     0.543610000000     0.620290000000     0.0446736  
H141     H      0.091020000000     0.543610000000     0.620300000000     0.0452976  
H142     H      0.091120000000     0.944360000000     0.620270000000     0.0455292  
H143     H      0.147000000000     0.944430000000     0.620270000000     0.0447049  
H144     H      0.146900000000     0.543690000000     0.620300000000     0.0447811  
H145     H      0.243830000000     0.694310000000     0.466970000000     0.0447253  
H146     H      0.244150000000     0.793560000000     0.466970000000     0.0446879  
H147     H      0.244160000000     0.793560000000     0.522970000000     0.04469    
H148     H      0.243850000000     0.694310000000     0.522960000000     0.0447032  
H149     H      0.243990000000     0.944410000000     0.466970000000     0.0444983  
H150     H      0.243990000000     0.543670000000     0.466980000000     0.0447023  
H151     H      0.244000000000     0.543660000000     0.522970000000     0.0447272  
H152     H      0.244010000000     0.944410000000     0.522970000000     0.0445062  
H153     H      0.493500000000     0.694310000000     0.466980000000     0.0446095  
H154     H      0.994470000000     0.793560000000     0.466980000000     0.0439602  
H155     H      0.994490000000     0.793560000000     0.522970000000     0.0439741  
H156     H      0.493520000000     0.694310000000     0.522970000000     0.0446231  
H157     H      0.396960000000     0.793530000000     0.369670000000     0.0445535  
H158     H      0.396860000000     0.694280000000     0.369650000000     0.0446996  
H159     H      0.340980000000     0.694350000000     0.369650000000     0.0445658  
H160     H      0.341080000000     0.793600000000     0.369660000000     0.0446317  
H161     H      0.146960000000     0.793520000000     0.369660000000     0.0447987  
H162     H      0.146860000000     0.694270000000     0.369660000000     0.0448746  
H163     H      0.090980000000     0.694350000000     0.369670000000     0.0454989  
H164     H      0.091080000000     0.793600000000     0.369660000000     0.0455575  
H165     H      0.993980000000     0.944410000000     0.466980000000     0.0437949  
H166     H      0.493990000000     0.543660000000     0.466980000000     0.0446296  
H167     H      0.494000000000     0.543660000000     0.522980000000     0.0446358  
H168     H      0.994000000000     0.944410000000     0.522970000000     0.043768   
H169     H      0.396960000000     0.543610000000     0.369660000000     0.0445853  
H170     H      0.396860000000     0.944360000000     0.369670000000     0.0444143  
H171     H      0.340980000000     0.944440000000     0.369670000000     0.0443985  
H172     H      0.341090000000     0.543690000000     0.369640000000     0.0446661  
H173     H      0.090990000000     0.944440000000     0.369670000000     0.0452893  
H174     H      0.091090000000     0.543690000000     0.369650000000     0.045577   
H175     H      0.146960000000     0.543610000000     0.369660000000     0.0448118  
H176     H      0.146860000000     0.944360000000     0.369670000000     0.044641   
H177     H      0.209110000000     0.708760000000     0.716730000000     0.0413886  
H178     H      0.278910000000     0.779100000000     0.716740000000     0.041254   
H179     H      0.279430000000     0.778560000000     0.773210000000     0.0412292  
H180     H      0.208560000000     0.709300000000     0.773200000000     0.0413322  
H181     H      0.279300000000     0.528730000000     0.773230000000     0.0414215  
H182     H      0.208690000000     0.959210000000     0.773180000000     0.0408591  
H183     H      0.209240000000     0.958690000000     0.716720000000     0.0413808  
H184     H      0.278760000000     0.529300000000     0.716760000000     0.0414661  
H185     H      0.293640000000     0.896830000000     0.869650000000     0.044454   
H186     H      0.194390000000     0.896930000000     0.869640000000     0.0447434  
H187     H      0.194310000000     0.841050000000     0.869640000000     0.0448873  
H188     H      0.293560000000     0.840960000000     0.869660000000     0.0444018  
H189     H      0.293560000000     0.590950000000     0.869690000000     0.0446767  
H190     H      0.194310000000     0.591060000000     0.869650000000     0.0446653  
H191     H      0.194380000000     0.646930000000     0.869660000000     0.0445318  
H192     H      0.293640000000     0.646830000000     0.869680000000     0.044794   
H193     H      0.029300000000     0.709170000000     0.773220000000     0.0413357  
H194     H      0.458700000000     0.778700000000     0.773200000000     0.0411789  
H195     H      0.459240000000     0.779230000000     0.716740000000     0.0411876  
H196     H      0.028770000000     0.708630000000     0.716750000000     0.0412069  
H197     H      0.458830000000     0.959080000000     0.773190000000     0.0405862  
H198     H      0.029170000000     0.528870000000     0.773230000000     0.0413886  
H199     H      0.028630000000     0.529430000000     0.716760000000     0.0412835  
H200     H      0.459380000000     0.958560000000     0.716730000000     0.041032   
H201     H      0.544300000000     0.896930000000     0.868930000000     0.0446669  
H202     H      0.945050000000     0.896840000000     0.870400000000     0.0442323  
H203     H      0.945050000000     0.841050000000     0.870400000000     0.0442799  
H204     H      0.544300000000     0.840960000000     0.868930000000     0.0448112  
H205     H      0.042920000000     0.591050000000     0.870440000000     0.0440219  
H206     H      0.443670000000     0.590970000000     0.868940000000     0.0447499  
H207     H      0.443680000000     0.646930000000     0.868940000000     0.0448408  
H208     H      0.042920000000     0.646840000000     0.870440000000     0.044037   
H209     H      0.208640000000     0.778700000000     0.216740000000     0.0414838  
H210     H      0.279250000000     0.709180000000     0.216730000000     0.041392   
H211     H      0.278720000000     0.708640000000     0.273200000000     0.0413748  
H212     H      0.209190000000     0.779240000000     0.273210000000     0.0414647  
H213     H      0.194320000000     0.743950000000     0.022960000000     0.044737   
H214     H      0.293570000000     0.743960000000     0.022970000000     0.04464    
H215     H      0.293580000000     0.743950000000     0.966980000000     0.0445826  
H216     H      0.194330000000     0.743960000000     0.966970000000     0.044695   
H217     H      0.208650000000     0.528740000000     0.216730000000     0.0414755  
H218     H      0.279250000000     0.959220000000     0.216740000000     0.0406752  
H219     H      0.278720000000     0.958700000000     0.273210000000     0.0411685  
H220     H      0.209200000000     0.529310000000     0.273200000000     0.0415009  
H221     H      0.194320000000     0.993930000000     0.022960000000     0.0440789  
H222     H      0.293580000000     0.493940000000     0.022970000000     0.0445908  
H223     H      0.293580000000     0.493930000000     0.966980000000     0.0445767  
H224     H      0.194330000000     0.993930000000     0.966970000000     0.0440676  
H225     H      0.194360000000     0.840960000000     0.120290000000     0.0446738  
H226     H      0.293610000000     0.841060000000     0.120300000000     0.0446136  
H227     H      0.293530000000     0.896940000000     0.120300000000     0.0444868  
H228     H      0.194280000000     0.896840000000     0.120300000000     0.0446609  
H229     H      0.194360000000     0.590960000000     0.120270000000     0.0447007  
H230     H      0.293610000000     0.591060000000     0.120280000000     0.0446413  
H231     H      0.293530000000     0.646940000000     0.120270000000     0.0445903  
H232     H      0.194280000000     0.646840000000     0.120280000000     0.0447724  
H233     H      0.029260000000     0.709180000000     0.216740000000     0.0415551  
H234     H      0.458660000000     0.778710000000     0.216750000000     0.0413455  
H235     H      0.459200000000     0.779240000000     0.273220000000     0.0413676  
H236     H      0.028730000000     0.708640000000     0.273210000000     0.0414434  
H237     H      0.444340000000     0.743480000000     0.022970000000     0.0446069  
H238     H      0.043590000000     0.744450000000     0.022980000000     0.0441828  
H239     H      0.043590000000     0.744440000000     0.966990000000     0.0442283  
H240     H      0.444350000000     0.743470000000     0.966980000000     0.0446412  
H241     H      0.458660000000     0.528750000000     0.216730000000     0.0413654  
H242     H      0.029260000000     0.959220000000     0.216750000000     0.0408843  
H243     H      0.028730000000     0.958700000000     0.273220000000     0.0411885  
H244     H      0.459210000000     0.529310000000     0.273200000000     0.0413881  
H245     H      0.043590000000     0.994090000000     0.022980000000     0.0435404  
H246     H      0.444340000000     0.493780000000     0.022970000000     0.0445905  
H247     H      0.444350000000     0.493780000000     0.966980000000     0.0446045  
H248     H      0.043600000000     0.994080000000     0.966990000000     0.0435526  
H249     H      0.444290000000     0.896840000000     0.120310000000     0.0445424  
H250     H      0.043550000000     0.896940000000     0.120310000000     0.044061   
H251     H      0.043620000000     0.841070000000     0.120310000000     0.0442336  
H252     H      0.444370000000     0.840970000000     0.120300000000     0.0445521  
H253     H      0.043630000000     0.591070000000     0.120280000000     0.0442499  
H254     H      0.444380000000     0.590970000000     0.120280000000     0.0445863  
H255     H      0.444300000000     0.646840000000     0.120290000000     0.0446688  
H256     H      0.043550000000     0.646950000000     0.120280000000     0.0441847  
H257     H      0.896910000000     0.292860000000     0.619540000000     0.0443803  
H258     H      0.897000000000     0.193620000000     0.621020000000     0.0447999  
H259     H      0.841030000000     0.193620000000     0.621020000000     0.0448439  
H260     H      0.841120000000     0.292860000000     0.619530000000     0.044479   
H261     H      0.591120000000     0.195000000000     0.619530000000     0.0445551  
H262     H      0.591030000000     0.294240000000     0.621020000000     0.0447908  
H263     H      0.647000000000     0.294240000000     0.621020000000     0.0447692  
H264     H      0.646910000000     0.195000000000     0.619530000000     0.0446197  
H265     H      0.896900000000     0.043680000000     0.620300000000     0.0442823  
H266     H      0.897000000000     0.444430000000     0.620280000000     0.0443378  
H267     H      0.841120000000     0.444360000000     0.620280000000     0.0445681  
H268     H      0.841020000000     0.043610000000     0.620290000000     0.0442059  
H269     H      0.591020000000     0.043610000000     0.620300000000     0.0439929  
H270     H      0.591120000000     0.444360000000     0.620270000000     0.0447969  
H271     H      0.647000000000     0.444430000000     0.620270000000     0.0446752  
H272     H      0.646900000000     0.043690000000     0.620300000000     0.0441889  
H273     H      0.743840000000     0.194310000000     0.466970000000     0.0447222  
H274     H      0.744150000000     0.293560000000     0.466970000000     0.044608   
H275     H      0.744160000000     0.293560000000     0.522970000000     0.0446054  
H276     H      0.743850000000     0.194310000000     0.522960000000     0.0447198  
H277     H      0.743990000000     0.444410000000     0.466970000000     0.0446102  
H278     H      0.743990000000     0.043660000000     0.466980000000     0.0442109  
H279     H      0.744000000000     0.043660000000     0.522970000000     0.0442109  
H280     H      0.744010000000     0.444410000000     0.522970000000     0.0446234  
H281     H      0.993500000000     0.194310000000     0.466980000000     0.0440614  
H282     H      0.494470000000     0.293560000000     0.466980000000     0.0445671  
H283     H      0.494490000000     0.293550000000     0.522970000000     0.0446204  
H284     H      0.993520000000     0.194310000000     0.522970000000     0.0440721  
H285     H      0.896960000000     0.293530000000     0.369670000000     0.0444919  
H286     H      0.896860000000     0.194280000000     0.369650000000     0.0446627  
H287     H      0.840980000000     0.194350000000     0.369650000000     0.0446494  
H288     H      0.841080000000     0.293610000000     0.369660000000     0.0446122  
H289     H      0.646960000000     0.293520000000     0.369660000000     0.0445732  
H290     H      0.646860000000     0.194270000000     0.369660000000     0.0447477  
H291     H      0.590980000000     0.194350000000     0.369670000000     0.0447095  
H292     H      0.591080000000     0.293600000000     0.369660000000     0.0446463  
H293     H      0.493980000000     0.444410000000     0.466980000000     0.0445926  
H294     H      0.993990000000     0.043660000000     0.466980000000     0.0435744  
H295     H      0.994000000000     0.043660000000     0.522980000000     0.0435233  
H296     H      0.494000000000     0.444410000000     0.522970000000     0.0446082  
H297     H      0.896960000000     0.043620000000     0.369660000000     0.0440469  
H298     H      0.896860000000     0.444360000000     0.369670000000     0.0445228  
H299     H      0.840990000000     0.444440000000     0.369670000000     0.0445623  
H300     H      0.841090000000     0.043690000000     0.369640000000     0.044247   
H301     H      0.590990000000     0.444440000000     0.369670000000     0.0445884  
H302     H      0.591080000000     0.043690000000     0.369650000000     0.0442609  
H303     H      0.646960000000     0.043620000000     0.369660000000     0.0441521  
H304     H      0.646860000000     0.444360000000     0.369670000000     0.0446494  
H305     H      0.709110000000     0.208760000000     0.716730000000     0.0413885  
H306     H      0.778900000000     0.279100000000     0.716740000000     0.0412708  
H307     H      0.779430000000     0.278560000000     0.773210000000     0.0412371  
H308     H      0.708560000000     0.209300000000     0.773200000000     0.041357   
H309     H      0.779300000000     0.028730000000     0.773230000000     0.0414319  
H310     H      0.708690000000     0.459210000000     0.773180000000     0.0414096  
H311     H      0.709240000000     0.458690000000     0.716720000000     0.0414988  
H312     H      0.778760000000     0.029300000000     0.716760000000     0.0416412  
H313     H      0.793640000000     0.396830000000     0.869650000000     0.0445553  
H314     H      0.694390000000     0.396930000000     0.869640000000     0.0447113  
H315     H      0.694310000000     0.341060000000     0.869640000000     0.044794   
H316     H      0.793560000000     0.340950000000     0.869660000000     0.04443    
H317     H      0.793560000000     0.090950000000     0.869690000000     0.0455126  
H318     H      0.694310000000     0.091050000000     0.869650000000     0.0454784  
H319     H      0.694380000000     0.146930000000     0.869660000000     0.0446748  
H320     H      0.793640000000     0.146830000000     0.869680000000     0.0450191  
H321     H      0.529300000000     0.209170000000     0.773220000000     0.0413215  
H322     H      0.958700000000     0.278700000000     0.773200000000     0.0410041  
H323     H      0.959240000000     0.279240000000     0.716740000000     0.0405396  
H324     H      0.528780000000     0.208630000000     0.716750000000     0.0412867  
H325     H      0.958830000000     0.459070000000     0.773190000000     0.0410546  
H326     H      0.529170000000     0.028870000000     0.773230000000     0.041299   
H327     H      0.528640000000     0.029430000000     0.716760000000     0.0414393  
H328     H      0.959380000000     0.458560000000     0.716730000000     0.04062    
H329     H      0.044300000000     0.396930000000     0.868930000000     0.0443836  
H330     H      0.445050000000     0.396840000000     0.870400000000     0.0444899  
H331     H      0.445050000000     0.341050000000     0.870400000000     0.0444352  
H332     H      0.044290000000     0.340970000000     0.868930000000     0.0444408  
H333     H      0.542920000000     0.091050000000     0.870440000000     0.0453745  
H334     H      0.943670000000     0.090970000000     0.868940000000     0.0454578  
H335     H      0.943670000000     0.146930000000     0.868940000000     0.0447932  
H336     H      0.542920000000     0.146840000000     0.870440000000     0.0446849  
H337     H      0.708640000000     0.278700000000     0.216740000000     0.0414118  
H338     H      0.779250000000     0.209180000000     0.216730000000     0.0414972  
H339     H      0.778720000000     0.208640000000     0.273200000000     0.0414407  
H340     H      0.709190000000     0.279240000000     0.273210000000     0.0413382  
H341     H      0.694320000000     0.243950000000     0.022960000000     0.0447259  
H342     H      0.793580000000     0.243960000000     0.022970000000     0.0446965  
H343     H      0.793580000000     0.243950000000     0.966980000000     0.0446671  
H344     H      0.694330000000     0.243960000000     0.966970000000     0.0446894  
H345     H      0.708650000000     0.028740000000     0.216730000000     0.0414221  
H346     H      0.779250000000     0.459220000000     0.216740000000     0.0413635  
H347     H      0.778720000000     0.458700000000     0.273210000000     0.0413573  
H348     H      0.709200000000     0.029310000000     0.273200000000     0.0415639  
H349     H      0.694320000000     0.493930000000     0.022960000000     0.0446291  
H350     H      0.793580000000     0.993940000000     0.022970000000     0.043976   
H351     H      0.793580000000     0.993930000000     0.966980000000     0.0439574  
H352     H      0.694330000000     0.493930000000     0.966970000000     0.0446133  
H353     H      0.694360000000     0.340960000000     0.120290000000     0.0445966  
H354     H      0.793610000000     0.341060000000     0.120300000000     0.0446292  
H355     H      0.793530000000     0.396940000000     0.120300000000     0.0445669  
H356     H      0.694280000000     0.396840000000     0.120300000000     0.0446612  
H357     H      0.694360000000     0.090960000000     0.120270000000     0.0454876  
H358     H      0.793610000000     0.091060000000     0.120280000000     0.0455541  
H359     H      0.793530000000     0.146940000000     0.120270000000     0.0447911  
H360     H      0.694280000000     0.146840000000     0.120280000000     0.044874   
H361     H      0.529260000000     0.209180000000     0.216740000000     0.0414872  
H362     H      0.958660000000     0.278710000000     0.216750000000     0.041138   
H363     H      0.959200000000     0.279240000000     0.273220000000     0.040695   
H364     H      0.528730000000     0.208640000000     0.273210000000     0.0414842  
H365     H      0.944340000000     0.243480000000     0.022970000000     0.0444974  
H366     H      0.543590000000     0.244450000000     0.022980000000     0.0446896  
H367     H      0.543600000000     0.244440000000     0.966990000000     0.0447336  
H368     H      0.944350000000     0.243470000000     0.966980000000     0.0445154  
H369     H      0.958660000000     0.028750000000     0.216730000000     0.0411874  
H370     H      0.529260000000     0.459220000000     0.216750000000     0.0413861  
H371     H      0.528730000000     0.458700000000     0.273220000000     0.0413663  
H372     H      0.959210000000     0.029310000000     0.273200000000     0.0408826  
H373     H      0.543590000000     0.494090000000     0.022980000000     0.0446065  
H374     H      0.944340000000     0.993780000000     0.022970000000     0.0437815  
H375     H      0.944350000000     0.993780000000     0.966980000000     0.0437993  
H376     H      0.543600000000     0.494080000000     0.966990000000     0.0446182  
H377     H      0.944290000000     0.396850000000     0.120310000000     0.0444289  
H378     H      0.543550000000     0.396940000000     0.120310000000     0.0445773  
H379     H      0.543620000000     0.341070000000     0.120310000000     0.0446626  
H380     H      0.944370000000     0.340970000000     0.120300000000     0.0443962  
H381     H      0.543630000000     0.091070000000     0.120280000000     0.0455734  
H382     H      0.944380000000     0.090970000000     0.120280000000     0.0452918  
H383     H      0.944300000000     0.146840000000     0.120290000000     0.0446526  
H384     H      0.543550000000     0.146940000000     0.120280000000     0.0448129  
H385     H      0.896910000000     0.792860000000     0.619540000000     0.044387   
H386     H      0.897000000000     0.693620000000     0.621020000000     0.0447065  
H387     H      0.841030000000     0.693620000000     0.621020000000     0.0447542  
H388     H      0.841120000000     0.792860000000     0.619530000000     0.0444843  
H389     H      0.591120000000     0.695000000000     0.619530000000     0.044468   
H390     H      0.591030000000     0.794240000000     0.621020000000     0.044799   
H391     H      0.647000000000     0.794240000000     0.621020000000     0.0447699  
H392     H      0.646910000000     0.695000000000     0.619530000000     0.0445384  
H393     H      0.896900000000     0.543680000000     0.620300000000     0.0446945  
H394     H      0.897000000000     0.944430000000     0.620280000000     0.0441636  
H395     H      0.841120000000     0.944350000000     0.620280000000     0.044351   
H396     H      0.841020000000     0.543610000000     0.620290000000     0.0446523  
H397     H      0.591020000000     0.543610000000     0.620300000000     0.0444398  
H398     H      0.591120000000     0.944360000000     0.620270000000     0.0445996  
H399     H      0.647000000000     0.944430000000     0.620270000000     0.0444978  
H400     H      0.646900000000     0.543690000000     0.620300000000     0.0446011  
H401     H      0.743840000000     0.694310000000     0.466970000000     0.0446555  
H402     H      0.744150000000     0.793560000000     0.466970000000     0.0446183  
H403     H      0.744160000000     0.793560000000     0.522970000000     0.0446206  
H404     H      0.743850000000     0.694310000000     0.522960000000     0.0446337  
H405     H      0.743990000000     0.944410000000     0.466970000000     0.0444287  
H406     H      0.743990000000     0.543670000000     0.466980000000     0.0446329  
H407     H      0.744000000000     0.543660000000     0.522970000000     0.0446582  
H408     H      0.744010000000     0.944410000000     0.522970000000     0.0444361  
H409     H      0.993500000000     0.694310000000     0.466980000000     0.0439857  
H410     H      0.494470000000     0.793560000000     0.466980000000     0.0445919  
H411     H      0.494490000000     0.793560000000     0.522970000000     0.0446029  
H412     H      0.993520000000     0.694310000000     0.522970000000     0.0439948  
H413     H      0.896960000000     0.793530000000     0.369670000000     0.0444801  
H414     H      0.896860000000     0.694280000000     0.369650000000     0.0446116  
H415     H      0.840980000000     0.694350000000     0.369650000000     0.0445538  
H416     H      0.841080000000     0.793600000000     0.369660000000     0.0446226  
H417     H      0.646960000000     0.793520000000     0.369660000000     0.0446035  
H418     H      0.646860000000     0.694270000000     0.369660000000     0.0446841  
H419     H      0.590980000000     0.694350000000     0.369670000000     0.0446191  
H420     H      0.591080000000     0.793600000000     0.369660000000     0.0446483  
H421     H      0.493980000000     0.944410000000     0.466980000000     0.0444217  
H422     H      0.993990000000     0.543660000000     0.466980000000     0.0440009  
H423     H      0.994000000000     0.543660000000     0.522980000000     0.0439988  
H424     H      0.494000000000     0.944410000000     0.522970000000     0.044386   
H425     H      0.896960000000     0.543610000000     0.369660000000     0.0445128  
H426     H      0.896860000000     0.944360000000     0.369670000000     0.0443249  
H427     H      0.840990000000     0.944440000000     0.369670000000     0.0443864  
H428     H      0.841090000000     0.543690000000     0.369640000000     0.0446568  
H429     H      0.590990000000     0.944440000000     0.369670000000     0.0444133  
H430     H      0.591080000000     0.543690000000     0.369650000000     0.044669   
H431     H      0.646960000000     0.543610000000     0.369660000000     0.0446217  
H432     H      0.646860000000     0.944360000000     0.369670000000     0.0444507  
H433     H      0.709110000000     0.708760000000     0.716730000000     0.0413029  
H434     H      0.778900000000     0.779100000000     0.716740000000     0.0412686  
H435     H      0.779430000000     0.778560000000     0.773210000000     0.0412301  
H436     H      0.708560000000     0.709300000000     0.773200000000     0.0412577  
H437     H      0.779300000000     0.528730000000     0.773230000000     0.0413978  
H438     H      0.708690000000     0.959210000000     0.773180000000     0.0407424  
H439     H      0.709240000000     0.958690000000     0.716720000000     0.0412783  
H440     H      0.778760000000     0.529300000000     0.716760000000     0.0414701  
H441     H      0.793640000000     0.896830000000     0.869650000000     0.0444665  
H442     H      0.694390000000     0.896930000000     0.869640000000     0.0446411  
H443     H      0.694310000000     0.841050000000     0.869640000000     0.0447853  
H444     H      0.793560000000     0.840960000000     0.869660000000     0.0444149  
H445     H      0.793560000000     0.590950000000     0.869690000000     0.0446367  
H446     H      0.694310000000     0.591060000000     0.869650000000     0.0445723  
H447     H      0.694380000000     0.646930000000     0.869660000000     0.0444767  
H448     H      0.793640000000     0.646830000000     0.869680000000     0.0448284  
H449     H      0.529300000000     0.709170000000     0.773220000000     0.0412265  
H450     H      0.958700000000     0.778700000000     0.773200000000     0.040996   
H451     H      0.959240000000     0.779230000000     0.716740000000     0.0405517  
H452     H      0.528780000000     0.708630000000     0.716750000000     0.0412096  
H453     H      0.958830000000     0.959080000000     0.773190000000     0.0404038  
H454     H      0.529170000000     0.528870000000     0.773230000000     0.0412656  
H455     H      0.528640000000     0.529430000000     0.716760000000     0.0412705  
H456     H      0.959380000000     0.958560000000     0.716730000000     0.0403992  
H457     H      0.044300000000     0.896930000000     0.868930000000     0.0442785  
H458     H      0.445050000000     0.896840000000     0.870400000000     0.0443987  
H459     H      0.445050000000     0.841050000000     0.870400000000     0.0444426  
H460     H      0.044290000000     0.840960000000     0.868930000000     0.0444456  
H461     H      0.542920000000     0.591050000000     0.870440000000     0.044486   
H462     H      0.943670000000     0.590970000000     0.868940000000     0.0445442  
H463     H      0.943670000000     0.646930000000     0.868940000000     0.0446087  
H464     H      0.542920000000     0.646840000000     0.870440000000     0.0445059  
H465     H      0.708640000000     0.778700000000     0.216740000000     0.0413949  
H466     H      0.779250000000     0.709180000000     0.216730000000     0.0413918  
H467     H      0.778720000000     0.708640000000     0.273200000000     0.0413793  
H468     H      0.709190000000     0.779240000000     0.273210000000     0.0413599  
H469     H      0.694320000000     0.743950000000     0.022960000000     0.0446567  
H470     H      0.793580000000     0.743960000000     0.022970000000     0.0446273  
H471     H      0.793580000000     0.743950000000     0.966980000000     0.0445983  
H472     H      0.694330000000     0.743960000000     0.966970000000     0.0446201  
H473     H      0.708650000000     0.528740000000     0.216730000000     0.0413878  
H474     H      0.779250000000     0.959220000000     0.216740000000     0.040674   
H475     H      0.778720000000     0.958700000000     0.273210000000     0.0411706  
H476     H      0.709200000000     0.529310000000     0.273200000000     0.0413992  
H477     H      0.694320000000     0.993930000000     0.022960000000     0.0440012  
H478     H      0.793580000000     0.493940000000     0.022970000000     0.0445999  
H479     H      0.793580000000     0.493930000000     0.966980000000     0.0445853  
H480     H      0.694330000000     0.993930000000     0.966970000000     0.0439892  
H481     H      0.694360000000     0.840960000000     0.120290000000     0.0445831  
H482     H      0.793610000000     0.841060000000     0.120300000000     0.0446211  
H483     H      0.793530000000     0.896940000000     0.120300000000     0.0444927  
H484     H      0.694280000000     0.896840000000     0.120300000000     0.0445724  
H485     H      0.694360000000     0.590960000000     0.120270000000     0.0446106  
H486     H      0.793610000000     0.591060000000     0.120280000000     0.0446485  
H487     H      0.793530000000     0.646940000000     0.120270000000     0.0445958  
H488     H      0.694280000000     0.646840000000     0.120280000000     0.0446844  
H489     H      0.529260000000     0.709180000000     0.216740000000     0.0413861  
H490     H      0.958660000000     0.778710000000     0.216750000000     0.0411312  
H491     H      0.959200000000     0.779240000000     0.273220000000     0.0406969  
H492     H      0.528730000000     0.708640000000     0.273210000000     0.0414038  
H493     H      0.944340000000     0.743480000000     0.022970000000     0.0444267  
H494     H      0.543590000000     0.744450000000     0.022980000000     0.0446215  
H495     H      0.543600000000     0.744440000000     0.966990000000     0.0446653  
H496     H      0.944350000000     0.743470000000     0.966980000000     0.0444444  
H497     H      0.958660000000     0.528750000000     0.216730000000     0.0411515  
H498     H      0.529260000000     0.959220000000     0.216750000000     0.0407146  
H499     H      0.528730000000     0.958700000000     0.273220000000     0.0411513  
H500     H      0.959210000000     0.529310000000     0.273200000000     0.0407158  
H501     H      0.543590000000     0.994090000000     0.022980000000     0.0439789  
H502     H      0.944340000000     0.493780000000     0.022970000000     0.0444061  
H503     H      0.944350000000     0.493780000000     0.966980000000     0.0444208  
H504     H      0.543600000000     0.994080000000     0.966990000000     0.0439894  
H505     H      0.944290000000     0.896840000000     0.120310000000     0.0443539  
H506     H      0.543550000000     0.896940000000     0.120310000000     0.0445132  
H507     H      0.543620000000     0.841070000000     0.120310000000     0.044642   
H508     H      0.944370000000     0.840970000000     0.120300000000     0.044372   
H509     H      0.543630000000     0.591070000000     0.120280000000     0.0446632  
H510     H      0.944380000000     0.590970000000     0.120280000000     0.0444085  
H511     H      0.944300000000     0.646840000000     0.120290000000     0.0444722  
H512     H      0.543550000000     0.646950000000     0.120280000000     0.0446295  
Ni1      Ni     0.466560000000     0.494070000000     0.120250000000     0.994168   
Ni2      Ni     0.021360000000     0.493840000000     0.120260000000     0.997689   
Ni3      Ni     0.466560000000     0.244070000000     0.120250000000     0.994      
Ni4      Ni     0.021360000000     0.243840000000     0.120260000000     0.997967   
Ni5      Ni     0.216540000000     0.994070000000     0.120250000000     0.988897   
Ni6      Ni     0.271350000000     0.493840000000     0.120250000000     0.994267   
Ni7      Ni     0.216540000000     0.244070000000     0.120250000000     0.994521   
Ni8      Ni     0.271350000000     0.243840000000     0.120250000000     0.994288   
Ni9      Ni     0.021390000000     0.494250000000     0.869710000000     0.998181   
Ni10     Ni     0.466580000000     0.993650000000     0.869700000000     0.988732   
Ni11     Ni     0.466580000000     0.244240000000     0.869700000000     0.994256   
Ni12     Ni     0.021390000000     0.243650000000     0.869710000000     0.998036   
Ni13     Ni     0.216570000000     0.493830000000     0.869690000000     0.994375   
Ni14     Ni     0.271380000000     0.494060000000     0.869700000000     0.994337   
Ni15     Ni     0.271380000000     0.244060000000     0.869700000000     0.994326   
Ni16     Ni     0.216570000000     0.243830000000     0.869690000000     0.994499   
Ni17     Ni     0.994090000000     0.466620000000     0.369710000000     0.988731   
Ni18     Ni     0.993860000000     0.021430000000     0.369700000000     0.992572   
Ni19     Ni     0.993860000000     0.271340000000     0.369700000000     0.988735   
Ni20     Ni     0.994080000000     0.216530000000     0.369700000000     0.989062   
Ni21     Ni     0.244090000000     0.466620000000     0.369700000000     0.994526   
Ni22     Ni     0.243860000000     0.021430000000     0.369690000000     0.998048   
Ni23     Ni     0.244090000000     0.216530000000     0.369690000000     0.994552   
Ni24     Ni     0.243860000000     0.271340000000     0.369690000000     0.994366   
Ni25     Ni     0.993900000000     0.466620000000     0.620240000000     0.988747   
Ni26     Ni     0.994120000000     0.021420000000     0.620260000000     0.992365   
Ni27     Ni     0.993720000000     0.271330000000     0.620250000000     0.98868    
Ni28     Ni     0.494310000000     0.216530000000     0.620250000000     0.99428    
Ni29     Ni     0.244130000000     0.021420000000     0.620250000000     0.997918   
Ni30     Ni     0.243900000000     0.466620000000     0.620240000000     0.994456   
Ni31     Ni     0.244310000000     0.271330000000     0.620240000000     0.994194   
Ni32     Ni     0.243710000000     0.216530000000     0.620240000000     0.99436    
Ni33     Ni     0.466560000000     0.994070000000     0.120250000000     0.988612   
Ni34     Ni     0.021360000000     0.993840000000     0.120260000000     0.992435   
Ni35     Ni     0.466560000000     0.744070000000     0.120250000000     0.993975   
Ni36     Ni     0.021360000000     0.743840000000     0.120260000000     0.997945   
Ni37     Ni     0.216540000000     0.494070000000     0.120250000000     0.994408   
Ni38     Ni     0.271350000000     0.993840000000     0.120250000000     0.988811   
Ni39     Ni     0.216540000000     0.744060000000     0.120250000000     0.994498   
Ni40     Ni     0.271350000000     0.743840000000     0.120250000000     0.994265   
Ni41     Ni     0.021390000000     0.994240000000     0.869710000000     0.992672   
Ni42     Ni     0.466580000000     0.493650000000     0.869700000000     0.994187   
Ni43     Ni     0.466580000000     0.744240000000     0.869700000000     0.994226   
Ni44     Ni     0.021390000000     0.743650000000     0.869710000000     0.998009   
Ni45     Ni     0.216570000000     0.993830000000     0.869690000000     0.988918   
Ni46     Ni     0.271380000000     0.994060000000     0.869700000000     0.988823   
Ni47     Ni     0.271380000000     0.744060000000     0.869700000000     0.994303   
Ni48     Ni     0.216570000000     0.743830000000     0.869690000000     0.994475   
Ni49     Ni     0.994090000000     0.966620000000     0.369710000000     0.981944   
Ni50     Ni     0.993860000000     0.521430000000     0.369700000000     0.988862   
Ni51     Ni     0.993860000000     0.771340000000     0.369700000000     0.988646   
Ni52     Ni     0.994080000000     0.716540000000     0.369700000000     0.988922   
Ni53     Ni     0.244090000000     0.966620000000     0.369700000000     0.987718   
Ni54     Ni     0.243860000000     0.521430000000     0.369690000000     0.994352   
Ni55     Ni     0.244090000000     0.716540000000     0.369690000000     0.994288   
Ni56     Ni     0.243860000000     0.771340000000     0.369690000000     0.994259   
Ni57     Ni     0.993900000000     0.966620000000     0.620240000000     0.981989   
Ni58     Ni     0.994120000000     0.521420000000     0.620260000000     0.98854    
Ni59     Ni     0.993720000000     0.771330000000     0.620250000000     0.988751   
Ni60     Ni     0.494310000000     0.716530000000     0.620250000000     0.994227   
Ni61     Ni     0.244130000000     0.521420000000     0.620250000000     0.994175   
Ni62     Ni     0.243900000000     0.966620000000     0.620240000000     0.987607   
Ni63     Ni     0.244310000000     0.771330000000     0.620240000000     0.9943     
Ni64     Ni     0.243710000000     0.716530000000     0.620240000000     0.99427    
Ni65     Ni     0.966560000000     0.494070000000     0.120250000000     0.987356   
Ni66     Ni     0.521360000000     0.493840000000     0.120260000000     0.993982   
Ni67     Ni     0.966560000000     0.244070000000     0.120250000000     0.987195   
Ni68     Ni     0.521360000000     0.243840000000     0.120260000000     0.994264   
Ni69     Ni     0.716540000000     0.994070000000     0.120250000000     0.988803   
Ni70     Ni     0.771350000000     0.493840000000     0.120250000000     0.994372   
Ni71     Ni     0.716540000000     0.244070000000     0.120250000000     0.994396   
Ni72     Ni     0.771350000000     0.243840000000     0.120250000000     0.994429   
Ni73     Ni     0.521390000000     0.494250000000     0.869710000000     0.994479   
Ni74     Ni     0.966580000000     0.993650000000     0.869700000000     0.98195    
Ni75     Ni     0.966580000000     0.244240000000     0.869700000000     0.987481   
Ni76     Ni     0.521390000000     0.243650000000     0.869710000000     0.994295   
Ni77     Ni     0.716570000000     0.493830000000     0.869690000000     0.994294   
Ni78     Ni     0.771380000000     0.494060000000     0.869700000000     0.994508   
Ni79     Ni     0.771380000000     0.244060000000     0.869700000000     0.994387   
Ni80     Ni     0.716570000000     0.243830000000     0.869690000000     0.994379   
Ni81     Ni     0.494090000000     0.466620000000     0.369710000000     0.994051   
Ni82     Ni     0.493860000000     0.021430000000     0.369700000000     0.99807    
Ni83     Ni     0.493860000000     0.271340000000     0.369700000000     0.994205   
Ni84     Ni     0.494090000000     0.216530000000     0.369700000000     0.994581   
Ni85     Ni     0.744090000000     0.466620000000     0.369700000000     0.994498   
Ni86     Ni     0.743860000000     0.021430000000     0.369690000000     0.998031   
Ni87     Ni     0.744090000000     0.216530000000     0.369690000000     0.994523   
Ni88     Ni     0.743860000000     0.271340000000     0.369690000000     0.994347   
Ni89     Ni     0.493900000000     0.466620000000     0.620240000000     0.994156   
Ni90     Ni     0.494120000000     0.021420000000     0.620260000000     0.99794    
Ni91     Ni     0.493720000000     0.271330000000     0.620250000000     0.994113   
Ni92     Ni     0.994310000000     0.216530000000     0.620250000000     0.988893   
Ni93     Ni     0.744130000000     0.021420000000     0.620250000000     0.997897   
Ni94     Ni     0.743900000000     0.466620000000     0.620240000000     0.994431   
Ni95     Ni     0.744310000000     0.271330000000     0.620240000000     0.994175   
Ni96     Ni     0.743710000000     0.216530000000     0.620240000000     0.994344   
Ni97     Ni     0.966560000000     0.994070000000     0.120250000000     0.981828   
Ni98     Ni     0.521360000000     0.993840000000     0.120260000000     0.988719   
Ni99     Ni     0.966560000000     0.744070000000     0.120250000000     0.987166   
Ni100    Ni     0.521360000000     0.743840000000     0.120260000000     0.994239   
Ni101    Ni     0.716540000000     0.494070000000     0.120250000000     0.994318   
Ni102    Ni     0.771350000000     0.993840000000     0.120250000000     0.988918   
Ni103    Ni     0.716540000000     0.744060000000     0.120250000000     0.994373   
Ni104    Ni     0.771350000000     0.743840000000     0.120250000000     0.994407   
Ni105    Ni     0.521390000000     0.994240000000     0.869710000000     0.98896    
Ni106    Ni     0.966580000000     0.493650000000     0.869700000000     0.987378   
Ni107    Ni     0.966580000000     0.744240000000     0.869700000000     0.987447   
Ni108    Ni     0.521390000000     0.743650000000     0.869710000000     0.994264   
Ni109    Ni     0.716570000000     0.993830000000     0.869690000000     0.988833   
Ni110    Ni     0.771380000000     0.994060000000     0.869700000000     0.988996   
Ni111    Ni     0.771380000000     0.744060000000     0.869700000000     0.994364   
Ni112    Ni     0.716570000000     0.743830000000     0.869690000000     0.994356   
Ni113    Ni     0.494090000000     0.966620000000     0.369710000000     0.987236   
Ni114    Ni     0.493860000000     0.521430000000     0.369700000000     0.99437    
Ni115    Ni     0.493860000000     0.771340000000     0.369700000000     0.994114   
Ni116    Ni     0.494090000000     0.716540000000     0.369700000000     0.994444   
Ni117    Ni     0.744090000000     0.966620000000     0.369700000000     0.987688   
Ni118    Ni     0.743860000000     0.521430000000     0.369690000000     0.994331   
Ni119    Ni     0.744090000000     0.716540000000     0.369690000000     0.994259   
Ni120    Ni     0.743860000000     0.771340000000     0.369690000000     0.994239   
Ni121    Ni     0.493900000000     0.966620000000     0.620240000000     0.987372   
Ni122    Ni     0.494120000000     0.521420000000     0.620260000000     0.994124   
Ni123    Ni     0.493720000000     0.771330000000     0.620250000000     0.994183   
Ni124    Ni     0.994310000000     0.716530000000     0.620250000000     0.988836   
Ni125    Ni     0.744130000000     0.521420000000     0.620250000000     0.994151   
Ni126    Ni     0.743900000000     0.966620000000     0.620240000000     0.987578   
Ni127    Ni     0.744310000000     0.771330000000     0.620240000000     0.99428    
Ni128    Ni     0.743710000000     0.716530000000     0.620240000000     0.994255   
O1       O      0.468350000000     0.994710000000     0.164310000000    -0.43534    
O2       O      0.468390000000     0.493640000000     0.076200000000    -0.435194   
O3       O      0.468340000000     0.450060000000     0.120680000000    -0.434707   
O4       O      0.468430000000     0.037980000000     0.119830000000    -0.430835   
O5       O      0.019580000000     0.037860000000     0.120670000000    -0.424641   
O6       O      0.019490000000     0.449930000000     0.119850000000    -0.430853   
O7       O      0.019540000000     0.994260000000     0.076200000000    -0.43031    
O8       O      0.019570000000     0.493220000000     0.164310000000    -0.428902   
O9       O      0.468350000000     0.244700000000     0.164310000000    -0.433838   
O10      O      0.468390000000     0.243640000000     0.076200000000    -0.435114   
O11      O      0.468340000000     0.200050000000     0.120670000000    -0.434407   
O12      O      0.468430000000     0.287980000000     0.119840000000    -0.435784   
O13      O      0.019580000000     0.287860000000     0.120690000000    -0.429454   
O14      O      0.019490000000     0.199940000000     0.119830000000    -0.430937   
O15      O      0.019540000000     0.244280000000     0.076200000000    -0.429988   
O16      O      0.019570000000     0.243200000000     0.164310000000    -0.428905   
O17      O      0.218420000000     0.037970000000     0.119830000000    -0.431056   
O18      O      0.218320000000     0.450050000000     0.120680000000    -0.434418   
O19      O      0.218340000000     0.994710000000     0.164300000000    -0.435454   
O20      O      0.218370000000     0.493630000000     0.076190000000    -0.434979   
O21      O      0.269520000000     0.994250000000     0.076190000000    -0.435379   
O22      O      0.269550000000     0.493210000000     0.164300000000    -0.434177   
O23      O      0.269470000000     0.449930000000     0.119840000000    -0.435836   
O24      O      0.269570000000     0.037850000000     0.120660000000    -0.429699   
O25      O      0.218320000000     0.200050000000     0.120660000000    -0.434337   
O26      O      0.218420000000     0.287970000000     0.119840000000    -0.435941   
O27      O      0.218370000000     0.243650000000     0.076190000000    -0.434917   
O28      O      0.218340000000     0.244690000000     0.164300000000    -0.434081   
O29      O      0.269550000000     0.243200000000     0.164300000000    -0.434061   
O30      O      0.269520000000     0.244260000000     0.076190000000    -0.435049   
O31      O      0.269570000000     0.287850000000     0.120670000000    -0.434629   
O32      O      0.269470000000     0.199930000000     0.119830000000    -0.435739   
O33      O      0.019980000000     0.450210000000     0.869260000000    -0.429222   
O34      O      0.019140000000     0.038130000000     0.870150000000    -0.426303   
O35      O      0.019550000000     0.493780000000     0.913760000000    -0.430333   
O36      O      0.019590000000     0.994890000000     0.825660000000    -0.430445   
O37      O      0.468390000000     0.493020000000     0.825650000000    -0.43406    
O38      O      0.468400000000     0.994090000000     0.913760000000    -0.435311   
O39      O      0.467990000000     0.037680000000     0.869270000000    -0.429421   
O40      O      0.468830000000     0.449760000000     0.870130000000    -0.436016   
O41      O      0.468830000000     0.288130000000     0.870140000000    -0.436086   
O42      O      0.467990000000     0.200210000000     0.869260000000    -0.434226   
O43      O      0.468400000000     0.243790000000     0.913760000000    -0.434947   
O44      O      0.468390000000     0.244880000000     0.825650000000    -0.434032   
O45      O      0.019590000000     0.243000000000     0.825660000000    -0.428957   
O46      O      0.019550000000     0.244120000000     0.913770000000    -0.430195   
O47      O      0.019140000000     0.199760000000     0.870160000000    -0.431087   
O48      O      0.019980000000     0.287680000000     0.869260000000    -0.429309   
O49      O      0.218370000000     0.493210000000     0.825640000000    -0.433932   
O50      O      0.218390000000     0.994240000000     0.913750000000    -0.435328   
O51      O      0.218350000000     0.037840000000     0.869280000000    -0.429672   
O52      O      0.218440000000     0.449920000000     0.870100000000    -0.435584   
O53      O      0.269600000000     0.450040000000     0.869270000000    -0.434471   
O54      O      0.269500000000     0.037960000000     0.870120000000    -0.431063   
O55      O      0.269540000000     0.493630000000     0.913750000000    -0.435167   
O56      O      0.269590000000     0.994700000000     0.825650000000    -0.435433   
O57      O      0.269590000000     0.244680000000     0.825650000000    -0.434104   
O58      O      0.269540000000     0.243640000000     0.913760000000    -0.434962   
O59      O      0.269590000000     0.200040000000     0.869290000000    -0.434412   
O60      O      0.269500000000     0.287960000000     0.870110000000    -0.436065   
O61      O      0.218350000000     0.287840000000     0.869270000000    -0.434493   
O62      O      0.218440000000     0.199920000000     0.870110000000    -0.435666   
O63      O      0.218390000000     0.244250000000     0.913750000000    -0.434959   
O64      O      0.218380000000     0.243190000000     0.825640000000    -0.433987   
O65      O      0.450070000000     0.468410000000     0.369290000000    -0.434566   
O66      O      0.037990000000     0.468500000000     0.370120000000    -0.431077   
O67      O      0.493670000000     0.468460000000     0.413760000000    -0.435081   
O68      O      0.994720000000     0.468410000000     0.325650000000    -0.43537    
O69      O      0.493230000000     0.019630000000     0.325640000000    -0.428889   
O70      O      0.994280000000     0.019610000000     0.413750000000    -0.430454   
O71      O      0.037870000000     0.019650000000     0.369280000000    -0.424695   
O72      O      0.449950000000     0.019560000000     0.370110000000    -0.430841   
O73      O      0.493220000000     0.269550000000     0.325650000000    -0.433893   
O74      O      0.994290000000     0.269510000000     0.413760000000    -0.435365   
O75      O      0.037870000000     0.269560000000     0.369270000000    -0.429667   
O76      O      0.449950000000     0.269470000000     0.370120000000    -0.435823   
O77      O      0.450070000000     0.218320000000     0.369280000000    -0.434466   
O78      O      0.037990000000     0.218410000000     0.370110000000    -0.430942   
O79      O      0.493660000000     0.218360000000     0.413750000000    -0.43507    
O80      O      0.994720000000     0.218330000000     0.325650000000    -0.435317   
O81      O      0.243670000000     0.468460000000     0.413750000000    -0.435105   
O82      O      0.244710000000     0.468410000000     0.325650000000    -0.433965   
O83      O      0.287990000000     0.468500000000     0.370110000000    -0.435995   
O84      O      0.200070000000     0.468410000000     0.369290000000    -0.434509   
O85      O      0.199950000000     0.019560000000     0.370110000000    -0.430729   
O86      O      0.287870000000     0.019650000000     0.369270000000    -0.429581   
O87      O      0.243220000000     0.019630000000     0.325640000000    -0.428906   
O88      O      0.244290000000     0.019610000000     0.413750000000    -0.430079   
O89      O      0.287990000000     0.218410000000     0.370100000000    -0.435957   
O90      O      0.200070000000     0.218320000000     0.369280000000    -0.434516   
O91      O      0.244710000000     0.218330000000     0.325640000000    -0.434023   
O92      O      0.243670000000     0.218360000000     0.413750000000    -0.43493    
O93      O      0.244290000000     0.269510000000     0.413750000000    -0.435063   
O94      O      0.243220000000     0.269540000000     0.325640000000    -0.434184   
O95      O      0.199950000000     0.269460000000     0.370110000000    -0.435826   
O96      O      0.287870000000     0.269560000000     0.369270000000    -0.434638   
O97      O      0.994320000000     0.468450000000     0.576190000000    -0.435279   
O98      O      0.493270000000     0.468400000000     0.664300000000    -0.433884   
O99      O      0.449990000000     0.468490000000     0.619840000000    -0.435906   
O100     O      0.037910000000     0.468400000000     0.620660000000    -0.429552   
O101     O      0.038030000000     0.019550000000     0.619840000000    -0.42612    
O102     O      0.450110000000     0.019640000000     0.620680000000    -0.429501   
O103     O      0.994760000000     0.019620000000     0.664310000000    -0.430378   
O104     O      0.493700000000     0.019600000000     0.576200000000    -0.430138   
O105     O      0.037750000000     0.269920000000     0.620690000000    -0.429487   
O106     O      0.449830000000     0.269090000000     0.619810000000    -0.43596    
O107     O      0.993080000000     0.269530000000     0.664300000000    -0.434884   
O108     O      0.494180000000     0.269510000000     0.576190000000    -0.435007   
O109     O      0.993850000000     0.218360000000     0.576190000000    -0.435334   
O110     O      0.494950000000     0.218330000000     0.664300000000    -0.433909   
O111     O      0.450280000000     0.217940000000     0.620700000000    -0.434138   
O112     O      0.038190000000     0.218780000000     0.619810000000    -0.431293   
O113     O      0.244750000000     0.019620000000     0.664310000000    -0.428808   
O114     O      0.243700000000     0.019610000000     0.576200000000    -0.430005   
O115     O      0.200110000000     0.019640000000     0.620670000000    -0.429461   
O116     O      0.288030000000     0.019550000000     0.619840000000    -0.430912   
O117     O      0.287910000000     0.468400000000     0.620660000000    -0.434758   
O118     O      0.199990000000     0.468490000000     0.619830000000    -0.435598   
O119     O      0.244320000000     0.468460000000     0.576190000000    -0.435152   
O120     O      0.243260000000     0.468400000000     0.664290000000    -0.434019   
O121     O      0.244950000000     0.269530000000     0.664300000000    -0.43392    
O122     O      0.243860000000     0.269510000000     0.576190000000    -0.435087   
O123     O      0.200280000000     0.269920000000     0.620680000000    -0.434309   
O124     O      0.288200000000     0.269090000000     0.619810000000    -0.436026   
O125     O      0.287750000000     0.217940000000     0.620680000000    -0.434183   
O126     O      0.199830000000     0.218780000000     0.619810000000    -0.43599    
O127     O      0.244170000000     0.218360000000     0.576190000000    -0.435149   
O128     O      0.243080000000     0.218330000000     0.664300000000    -0.433878   
O129     O      0.468350000000     0.494710000000     0.164310000000    -0.433895   
O130     O      0.468390000000     0.993640000000     0.076200000000    -0.435422   
O131     O      0.468340000000     0.950060000000     0.120680000000    -0.433734   
O132     O      0.468430000000     0.537980000000     0.119830000000    -0.435704   
O133     O      0.019580000000     0.537860000000     0.120670000000    -0.429485   
O134     O      0.019490000000     0.949940000000     0.119850000000    -0.429965   
O135     O      0.019540000000     0.494260000000     0.076200000000    -0.430014   
O136     O      0.019570000000     0.993220000000     0.164310000000    -0.429869   
O137     O      0.468350000000     0.744700000000     0.164310000000    -0.433857   
O138     O      0.468390000000     0.743640000000     0.076200000000    -0.435155   
O139     O      0.468340000000     0.700050000000     0.120670000000    -0.434463   
O140     O      0.468430000000     0.787980000000     0.119840000000    -0.435767   
O141     O      0.019580000000     0.787860000000     0.120690000000    -0.429436   
O142     O      0.019490000000     0.699940000000     0.119830000000    -0.430991   
O143     O      0.019540000000     0.744280000000     0.076200000000    -0.430024   
O144     O      0.019570000000     0.743200000000     0.164310000000    -0.428914   
O145     O      0.218420000000     0.537970000000     0.119830000000    -0.435922   
O146     O      0.218320000000     0.950050000000     0.120680000000    -0.433506   
O147     O      0.218340000000     0.494710000000     0.164300000000    -0.434004   
O148     O      0.218370000000     0.993630000000     0.076190000000    -0.43521    
O149     O      0.269520000000     0.494250000000     0.076190000000    -0.435115   
O150     O      0.269550000000     0.993220000000     0.164300000000    -0.435119   
O151     O      0.269470000000     0.949930000000     0.119840000000    -0.434901   
O152     O      0.269570000000     0.537850000000     0.120660000000    -0.434614   
O153     O      0.218320000000     0.700050000000     0.120660000000    -0.434532   
O154     O      0.218420000000     0.787970000000     0.119840000000    -0.435802   
O155     O      0.218370000000     0.743650000000     0.076190000000    -0.43496    
O156     O      0.218340000000     0.744690000000     0.164300000000    -0.434102   
O157     O      0.269550000000     0.743200000000     0.164300000000    -0.434073   
O158     O      0.269520000000     0.744260000000     0.076190000000    -0.435089   
O159     O      0.269570000000     0.787850000000     0.120670000000    -0.434595   
O160     O      0.269470000000     0.699930000000     0.119830000000    -0.435831   
O161     O      0.019980000000     0.950210000000     0.869260000000    -0.428467   
O162     O      0.019140000000     0.538130000000     0.870150000000    -0.431268   
O163     O      0.019550000000     0.993780000000     0.913760000000    -0.430576   
O164     O      0.019590000000     0.494890000000     0.825660000000    -0.428991   
O165     O      0.468390000000     0.993020000000     0.825650000000    -0.434991   
O166     O      0.468400000000     0.494090000000     0.913760000000    -0.435049   
O167     O      0.467990000000     0.537680000000     0.869270000000    -0.434353   
O168     O      0.468830000000     0.949760000000     0.870130000000    -0.43511    
O169     O      0.468830000000     0.788130000000     0.870140000000    -0.436043   
O170     O      0.467990000000     0.700210000000     0.869260000000    -0.434283   
O171     O      0.468400000000     0.743790000000     0.913760000000    -0.434988   
O172     O      0.468390000000     0.744880000000     0.825650000000    -0.434053   
O173     O      0.019590000000     0.743000000000     0.825660000000    -0.428965   
O174     O      0.019550000000     0.744120000000     0.913770000000    -0.430231   
O175     O      0.019140000000     0.699760000000     0.870160000000    -0.431135   
O176     O      0.019980000000     0.787680000000     0.869260000000    -0.429269   
O177     O      0.218370000000     0.993210000000     0.825640000000    -0.434866   
O178     O      0.218390000000     0.494240000000     0.913750000000    -0.435065   
O179     O      0.218350000000     0.537840000000     0.869280000000    -0.43457    
O180     O      0.218440000000     0.949920000000     0.870100000000    -0.434636   
O181     O      0.269600000000     0.950040000000     0.869270000000    -0.433554   
O182     O      0.269500000000     0.537960000000     0.870120000000    -0.435927   
O183     O      0.269540000000     0.993630000000     0.913750000000    -0.435398   
O184     O      0.269590000000     0.494700000000     0.825650000000    -0.433987   
O185     O      0.269590000000     0.744680000000     0.825650000000    -0.434124   
O186     O      0.269540000000     0.743640000000     0.913760000000    -0.435003   
O187     O      0.269590000000     0.700040000000     0.869290000000    -0.434492   
O188     O      0.269500000000     0.787960000000     0.870110000000    -0.436041   
O189     O      0.218350000000     0.787840000000     0.869270000000    -0.434463   
O190     O      0.218440000000     0.699920000000     0.870110000000    -0.435756   
O191     O      0.218390000000     0.744260000000     0.913750000000    -0.434995   
O192     O      0.218380000000     0.743190000000     0.825640000000    -0.433998   
O193     O      0.450070000000     0.968410000000     0.369290000000    -0.433037   
O194     O      0.037990000000     0.968500000000     0.370120000000    -0.429496   
O195     O      0.493670000000     0.968460000000     0.413760000000    -0.433512   
O196     O      0.994720000000     0.968410000000     0.325650000000    -0.433766   
O197     O      0.493230000000     0.519630000000     0.325640000000    -0.433943   
O198     O      0.994280000000     0.519610000000     0.413750000000    -0.435401   
O199     O      0.037870000000     0.519650000000     0.369280000000    -0.429664   
O200     O      0.449950000000     0.519560000000     0.370110000000    -0.435756   
O201     O      0.493220000000     0.769550000000     0.325650000000    -0.433857   
O202     O      0.994290000000     0.769510000000     0.413760000000    -0.435327   
O203     O      0.037870000000     0.769560000000     0.369270000000    -0.429628   
O204     O      0.449950000000     0.769470000000     0.370120000000    -0.435696   
O205     O      0.450070000000     0.718320000000     0.369280000000    -0.434551   
O206     O      0.037990000000     0.718410000000     0.370110000000    -0.430938   
O207     O      0.493660000000     0.718360000000     0.413750000000    -0.435057   
O208     O      0.994720000000     0.718330000000     0.325650000000    -0.435332   
O209     O      0.243670000000     0.968460000000     0.413750000000    -0.433538   
O210     O      0.244710000000     0.968410000000     0.325650000000    -0.432362   
O211     O      0.287990000000     0.968500000000     0.370110000000    -0.434401   
O212     O      0.200070000000     0.968410000000     0.369290000000    -0.432981   
O213     O      0.199950000000     0.519560000000     0.370110000000    -0.435638   
O214     O      0.287870000000     0.519650000000     0.369270000000    -0.434578   
O215     O      0.243220000000     0.519630000000     0.325640000000    -0.433958   
O216     O      0.244290000000     0.519610000000     0.413750000000    -0.43503    
O217     O      0.287990000000     0.718410000000     0.370100000000    -0.435849   
O218     O      0.200070000000     0.718320000000     0.369280000000    -0.43443    
O219     O      0.244710000000     0.718330000000     0.325640000000    -0.433954   
O220     O      0.243670000000     0.718360000000     0.413750000000    -0.434904   
O221     O      0.244290000000     0.769510000000     0.413750000000    -0.435015   
O222     O      0.243220000000     0.769550000000     0.325640000000    -0.433971   
O223     O      0.199950000000     0.769470000000     0.370110000000    -0.435618   
O224     O      0.287870000000     0.769560000000     0.369270000000    -0.434685   
O225     O      0.994320000000     0.968460000000     0.576190000000    -0.433955   
O226     O      0.493270000000     0.968400000000     0.664300000000    -0.432199   
O227     O      0.449990000000     0.968490000000     0.619840000000    -0.434318   
O228     O      0.037910000000     0.968400000000     0.620660000000    -0.428039   
O229     O      0.038030000000     0.519550000000     0.619840000000    -0.430997   
O230     O      0.450110000000     0.519640000000     0.620680000000    -0.434487   
O231     O      0.994760000000     0.519620000000     0.664310000000    -0.435309   
O232     O      0.493700000000     0.519610000000     0.576200000000    -0.434841   
O233     O      0.037750000000     0.769920000000     0.620690000000    -0.429385   
O234     O      0.449830000000     0.769090000000     0.619810000000    -0.435949   
O235     O      0.993080000000     0.769530000000     0.664300000000    -0.434874   
O236     O      0.494180000000     0.769510000000     0.576190000000    -0.434996   
O237     O      0.993850000000     0.718360000000     0.576190000000    -0.435363   
O238     O      0.494950000000     0.718330000000     0.664300000000    -0.43396    
O239     O      0.450280000000     0.717940000000     0.620700000000    -0.434178   
O240     O      0.038190000000     0.718780000000     0.619810000000    -0.431411   
O241     O      0.244750000000     0.519620000000     0.664310000000    -0.43376    
O242     O      0.243700000000     0.519610000000     0.576200000000    -0.434944   
O243     O      0.200110000000     0.519640000000     0.620670000000    -0.434453   
O244     O      0.288030000000     0.519550000000     0.619840000000    -0.435821   
O245     O      0.287910000000     0.968400000000     0.620660000000    -0.433226   
O246     O      0.199990000000     0.968490000000     0.619830000000    -0.434002   
O247     O      0.244320000000     0.968460000000     0.576190000000    -0.433584   
O248     O      0.243260000000     0.968400000000     0.664290000000    -0.432318   
O249     O      0.244950000000     0.769530000000     0.664300000000    -0.433915   
O250     O      0.243860000000     0.769510000000     0.576190000000    -0.435079   
O251     O      0.200280000000     0.769920000000     0.620680000000    -0.434299   
O252     O      0.288200000000     0.769090000000     0.619810000000    -0.436021   
O253     O      0.287750000000     0.717940000000     0.620680000000    -0.434215   
O254     O      0.199830000000     0.718780000000     0.619810000000    -0.436021   
O255     O      0.244170000000     0.718360000000     0.576190000000    -0.435171   
O256     O      0.243080000000     0.718330000000     0.664300000000    -0.433927   
O257     O      0.968350000000     0.994710000000     0.164310000000    -0.433739   
O258     O      0.968390000000     0.493640000000     0.076200000000    -0.433629   
O259     O      0.968340000000     0.450060000000     0.120680000000    -0.433178   
O260     O      0.968430000000     0.037980000000     0.119830000000    -0.429257   
O261     O      0.519580000000     0.037860000000     0.120670000000    -0.429608   
O262     O      0.519490000000     0.449930000000     0.119850000000    -0.435768   
O263     O      0.519540000000     0.994260000000     0.076200000000    -0.435244   
O264     O      0.519570000000     0.493220000000     0.164310000000    -0.433952   
O265     O      0.968350000000     0.244700000000     0.164310000000    -0.432237   
O266     O      0.968390000000     0.243640000000     0.076200000000    -0.43355    
O267     O      0.968340000000     0.200050000000     0.120670000000    -0.432878   
O268     O      0.968430000000     0.287980000000     0.119840000000    -0.434194   
O269     O      0.519580000000     0.287860000000     0.120690000000    -0.434446   
O270     O      0.519490000000     0.199940000000     0.119830000000    -0.435845   
O271     O      0.519540000000     0.244280000000     0.076200000000    -0.434927   
O272     O      0.519570000000     0.243200000000     0.164310000000    -0.433951   
O273     O      0.718420000000     0.037970000000     0.119830000000    -0.431082   
O274     O      0.718320000000     0.450050000000     0.120680000000    -0.43445    
O275     O      0.718340000000     0.994710000000     0.164300000000    -0.435504   
O276     O      0.718370000000     0.493630000000     0.076190000000    -0.435003   
O277     O      0.769520000000     0.994250000000     0.076190000000    -0.435369   
O278     O      0.769550000000     0.493210000000     0.164300000000    -0.434171   
O279     O      0.769470000000     0.449930000000     0.119840000000    -0.43583    
O280     O      0.769570000000     0.037850000000     0.120660000000    -0.429689   
O281     O      0.718320000000     0.200050000000     0.120660000000    -0.434364   
O282     O      0.718420000000     0.287970000000     0.119840000000    -0.435969   
O283     O      0.718370000000     0.243650000000     0.076190000000    -0.434938   
O284     O      0.718340000000     0.244690000000     0.164300000000    -0.434035   
O285     O      0.769550000000     0.243200000000     0.164300000000    -0.434151   
O286     O      0.769520000000     0.244260000000     0.076190000000    -0.435047   
O287     O      0.769570000000     0.287850000000     0.120670000000    -0.434624   
O288     O      0.769470000000     0.199930000000     0.119830000000    -0.435736   
O289     O      0.519980000000     0.450210000000     0.869260000000    -0.434229   
O290     O      0.519140000000     0.038130000000     0.870150000000    -0.43118    
O291     O      0.519550000000     0.493780000000     0.913760000000    -0.435281   
O292     O      0.519590000000     0.994890000000     0.825660000000    -0.435492   
O293     O      0.968390000000     0.493020000000     0.825650000000    -0.432462   
O294     O      0.968400000000     0.994090000000     0.913760000000    -0.433749   
O295     O      0.967990000000     0.037680000000     0.869270000000    -0.427911   
O296     O      0.968830000000     0.449760000000     0.870130000000    -0.434418   
O297     O      0.968830000000     0.288130000000     0.870140000000    -0.434489   
O298     O      0.967990000000     0.200210000000     0.869260000000    -0.43271    
O299     O      0.968400000000     0.243790000000     0.913760000000    -0.433453   
O300     O      0.968390000000     0.244880000000     0.825650000000    -0.432441   
O301     O      0.519590000000     0.243000000000     0.825660000000    -0.433994   
O302     O      0.519560000000     0.244120000000     0.913770000000    -0.434969   
O303     O      0.519140000000     0.199760000000     0.870160000000    -0.435979   
O304     O      0.519980000000     0.287680000000     0.869260000000    -0.434308   
O305     O      0.718380000000     0.493210000000     0.825640000000    -0.434063   
O306     O      0.718390000000     0.994240000000     0.913750000000    -0.435356   
O307     O      0.718350000000     0.037840000000     0.869280000000    -0.429704   
O308     O      0.718440000000     0.449920000000     0.870100000000    -0.435622   
O309     O      0.769600000000     0.450040000000     0.869270000000    -0.434467   
O310     O      0.769500000000     0.037960000000     0.870120000000    -0.431071   
O311     O      0.769540000000     0.493630000000     0.913750000000    -0.43517    
O312     O      0.769590000000     0.994700000000     0.825650000000    -0.435597   
O313     O      0.769590000000     0.244680000000     0.825650000000    -0.434093   
O314     O      0.769540000000     0.243640000000     0.913760000000    -0.434945   
O315     O      0.769600000000     0.200040000000     0.869290000000    -0.434231   
O316     O      0.769500000000     0.287960000000     0.870110000000    -0.436047   
O317     O      0.718350000000     0.287840000000     0.869270000000    -0.434525   
O318     O      0.718440000000     0.199920000000     0.870110000000    -0.435616   
O319     O      0.718390000000     0.244250000000     0.913750000000    -0.434978   
O320     O      0.718380000000     0.243190000000     0.825640000000    -0.434035   
O321     O      0.950070000000     0.468410000000     0.369290000000    -0.433679   
O322     O      0.538000000000     0.468500000000     0.370120000000    -0.435881   
O323     O      0.993670000000     0.468460000000     0.413760000000    -0.435335   
O324     O      0.494720000000     0.468410000000     0.325650000000    -0.433898   
O325     O      0.993230000000     0.019630000000     0.325640000000    -0.429832   
O326     O      0.494290000000     0.019610000000     0.413750000000    -0.43018    
O327     O      0.537870000000     0.019650000000     0.369280000000    -0.429602   
O328     O      0.949950000000     0.019560000000     0.370110000000    -0.42989    
O329     O      0.993220000000     0.269550000000     0.325650000000    -0.434826   
O330     O      0.494290000000     0.269510000000     0.413760000000    -0.435103   
O331     O      0.537870000000     0.269560000000     0.369270000000    -0.434596   
O332     O      0.949950000000     0.269470000000     0.370120000000    -0.434891   
O333     O      0.950070000000     0.218320000000     0.369280000000    -0.433671   
O334     O      0.537990000000     0.218410000000     0.370110000000    -0.435935   
O335     O      0.993660000000     0.218360000000     0.413750000000    -0.435304   
O336     O      0.494720000000     0.218330000000     0.325650000000    -0.433872   
O337     O      0.743670000000     0.468460000000     0.413750000000    -0.435146   
O338     O      0.744720000000     0.468410000000     0.325650000000    -0.433978   
O339     O      0.787990000000     0.468500000000     0.370110000000    -0.43596    
O340     O      0.700070000000     0.468410000000     0.369290000000    -0.434596   
O341     O      0.699950000000     0.019560000000     0.370110000000    -0.430804   
O342     O      0.787870000000     0.019650000000     0.369270000000    -0.429557   
O343     O      0.743220000000     0.019630000000     0.325640000000    -0.428912   
O344     O      0.744290000000     0.019610000000     0.413750000000    -0.430115   
O345     O      0.787990000000     0.218410000000     0.370100000000    -0.435921   
O346     O      0.700070000000     0.218320000000     0.369280000000    -0.434608   
O347     O      0.744720000000     0.218330000000     0.325640000000    -0.434034   
O348     O      0.743670000000     0.218360000000     0.413750000000    -0.43497    
O349     O      0.744290000000     0.269510000000     0.413750000000    -0.435103   
O350     O      0.743220000000     0.269540000000     0.325640000000    -0.434195   
O351     O      0.699950000000     0.269460000000     0.370110000000    -0.435911   
O352     O      0.787870000000     0.269560000000     0.369270000000    -0.434611   
O353     O      0.494320000000     0.468450000000     0.576190000000    -0.435016   
O354     O      0.993270000000     0.468400000000     0.664300000000    -0.434788   
O355     O      0.949990000000     0.468490000000     0.619840000000    -0.434948   
O356     O      0.537910000000     0.468400000000     0.620660000000    -0.43448    
O357     O      0.538030000000     0.019550000000     0.619840000000    -0.430954   
O358     O      0.950110000000     0.019640000000     0.620680000000    -0.428603   
O359     O      0.494760000000     0.019620000000     0.664310000000    -0.428893   
O360     O      0.993700000000     0.019600000000     0.576200000000    -0.430382   
O361     O      0.537750000000     0.269920000000     0.620690000000    -0.434447   
O362     O      0.949830000000     0.269090000000     0.619810000000    -0.435002   
O363     O      0.493080000000     0.269530000000     0.664300000000    -0.433986   
O364     O      0.994180000000     0.269510000000     0.576190000000    -0.435264   
O365     O      0.493850000000     0.218360000000     0.576190000000    -0.435075   
O366     O      0.994950000000     0.218330000000     0.664300000000    -0.435416   
O367     O      0.950280000000     0.217940000000     0.620700000000    -0.433272   
O368     O      0.538200000000     0.218780000000     0.619810000000    -0.436081   
O369     O      0.744760000000     0.019620000000     0.664310000000    -0.428815   
O370     O      0.743700000000     0.019610000000     0.576200000000    -0.430042   
O371     O      0.700110000000     0.019640000000     0.620670000000    -0.429539   
O372     O      0.788030000000     0.019550000000     0.619840000000    -0.430884   
O373     O      0.787910000000     0.468400000000     0.620660000000    -0.434733   
O374     O      0.699990000000     0.468490000000     0.619830000000    -0.435683   
O375     O      0.744320000000     0.468460000000     0.576190000000    -0.435192   
O376     O      0.743260000000     0.468400000000     0.664290000000    -0.434027   
O377     O      0.744950000000     0.269530000000     0.664300000000    -0.433943   
O378     O      0.743860000000     0.269510000000     0.576190000000    -0.435129   
O379     O      0.700280000000     0.269920000000     0.620680000000    -0.434488   
O380     O      0.788200000000     0.269090000000     0.619810000000    -0.436005   
O381     O      0.787750000000     0.217940000000     0.620680000000    -0.434168   
O382     O      0.699830000000     0.218780000000     0.619810000000    -0.436154   
O383     O      0.744170000000     0.218360000000     0.576190000000    -0.435189   
O384     O      0.743080000000     0.218330000000     0.664300000000    -0.433889   
O385     O      0.968350000000     0.494710000000     0.164310000000    -0.432293   
O386     O      0.968390000000     0.993640000000     0.076200000000    -0.43386    
O387     O      0.968340000000     0.950060000000     0.120680000000    -0.432211   
O388     O      0.968430000000     0.537980000000     0.119830000000    -0.434112   
O389     O      0.519580000000     0.537860000000     0.120670000000    -0.434482   
O390     O      0.519490000000     0.949940000000     0.119850000000    -0.434868   
O391     O      0.519540000000     0.494260000000     0.076200000000    -0.434957   
O392     O      0.519570000000     0.993220000000     0.164310000000    -0.43491    
O393     O      0.968350000000     0.744700000000     0.164310000000    -0.432255   
O394     O      0.968390000000     0.743640000000     0.076200000000    -0.43359    
O395     O      0.968340000000     0.700050000000     0.120670000000    -0.432933   
O396     O      0.968430000000     0.787980000000     0.119840000000    -0.434176   
O397     O      0.519580000000     0.787860000000     0.120690000000    -0.434428   
O398     O      0.519490000000     0.699940000000     0.119830000000    -0.435905   
O399     O      0.519540000000     0.744280000000     0.076200000000    -0.434967   
O400     O      0.519570000000     0.743200000000     0.164310000000    -0.433962   
O401     O      0.718420000000     0.537970000000     0.119830000000    -0.435952   
O402     O      0.718320000000     0.950050000000     0.120680000000    -0.433537   
O403     O      0.718340000000     0.494710000000     0.164300000000    -0.434053   
O404     O      0.718370000000     0.993630000000     0.076190000000    -0.435233   
O405     O      0.769520000000     0.494250000000     0.076190000000    -0.435105   
O406     O      0.769550000000     0.993220000000     0.164300000000    -0.435113   
O407     O      0.769470000000     0.949930000000     0.119840000000    -0.434895   
O408     O      0.769570000000     0.537850000000     0.120660000000    -0.434606   
O409     O      0.718320000000     0.700050000000     0.120660000000    -0.43456    
O410     O      0.718420000000     0.787970000000     0.119840000000    -0.43583    
O411     O      0.718370000000     0.743650000000     0.076190000000    -0.434981   
O412     O      0.718340000000     0.744690000000     0.164300000000    -0.434056   
O413     O      0.769550000000     0.743200000000     0.164300000000    -0.434162   
O414     O      0.769520000000     0.744260000000     0.076190000000    -0.435086   
O415     O      0.769570000000     0.787850000000     0.120670000000    -0.43459    
O416     O      0.769470000000     0.699930000000     0.119830000000    -0.435828   
O417     O      0.519980000000     0.950210000000     0.869260000000    -0.433463   
O418     O      0.519140000000     0.538130000000     0.870150000000    -0.436175   
O419     O      0.519550000000     0.993780000000     0.913760000000    -0.435515   
O420     O      0.519590000000     0.494890000000     0.825660000000    -0.434045   
O421     O      0.968390000000     0.993020000000     0.825650000000    -0.433393   
O422     O      0.968400000000     0.494090000000     0.913760000000    -0.433484   
O423     O      0.967990000000     0.537680000000     0.869270000000    -0.43283    
O424     O      0.968830000000     0.949760000000     0.870130000000    -0.433517   
O425     O      0.968830000000     0.788130000000     0.870140000000    -0.434446   
O426     O      0.967990000000     0.700210000000     0.869260000000    -0.432765   
O427     O      0.968400000000     0.743790000000     0.913760000000    -0.433492   
O428     O      0.968390000000     0.744880000000     0.825650000000    -0.432462   
O429     O      0.519590000000     0.743000000000     0.825660000000    -0.434005   
O430     O      0.519560000000     0.744120000000     0.913770000000    -0.435008   
O431     O      0.519140000000     0.699760000000     0.870160000000    -0.436033   
O432     O      0.519980000000     0.787680000000     0.869260000000    -0.434268   
O433     O      0.718380000000     0.993210000000     0.825640000000    -0.434997   
O434     O      0.718390000000     0.494240000000     0.913750000000    -0.435093   
O435     O      0.718350000000     0.537840000000     0.869280000000    -0.434607   
O436     O      0.718440000000     0.949920000000     0.870100000000    -0.434674   
O437     O      0.769600000000     0.950040000000     0.869270000000    -0.433551   
O438     O      0.769500000000     0.537960000000     0.870120000000    -0.435936   
O439     O      0.769540000000     0.993630000000     0.913750000000    -0.4354     
O440     O      0.769590000000     0.494700000000     0.825650000000    -0.43415    
O441     O      0.769590000000     0.744680000000     0.825650000000    -0.434113   
O442     O      0.769540000000     0.743640000000     0.913760000000    -0.434986   
O443     O      0.769600000000     0.700040000000     0.869290000000    -0.434311   
O444     O      0.769500000000     0.787960000000     0.870110000000    -0.436022   
O445     O      0.718350000000     0.787840000000     0.869270000000    -0.434496   
O446     O      0.718440000000     0.699920000000     0.870110000000    -0.435706   
O447     O      0.718390000000     0.744260000000     0.913750000000    -0.435014   
O448     O      0.718380000000     0.743190000000     0.825640000000    -0.434046   
O449     O      0.950070000000     0.968410000000     0.369290000000    -0.432156   
O450     O      0.538000000000     0.968500000000     0.370120000000    -0.434285   
O451     O      0.993670000000     0.968460000000     0.413760000000    -0.433769   
O452     O      0.494720000000     0.968410000000     0.325650000000    -0.432293   
O453     O      0.993230000000     0.519630000000     0.325640000000    -0.434877   
O454     O      0.494290000000     0.519610000000     0.413750000000    -0.435137   
O455     O      0.537870000000     0.519650000000     0.369280000000    -0.434602   
O456     O      0.949950000000     0.519560000000     0.370110000000    -0.434795   
O457     O      0.993220000000     0.769550000000     0.325650000000    -0.43479    
O458     O      0.494290000000     0.769510000000     0.413760000000    -0.435065   
O459     O      0.537870000000     0.769560000000     0.369270000000    -0.434559   
O460     O      0.949950000000     0.769470000000     0.370120000000    -0.434764   
O461     O      0.950070000000     0.718320000000     0.369280000000    -0.433756   
O462     O      0.537990000000     0.718410000000     0.370110000000    -0.435935   
O463     O      0.993660000000     0.718360000000     0.413750000000    -0.435291   
O464     O      0.494720000000     0.718330000000     0.325650000000    -0.433886   
O465     O      0.743670000000     0.968460000000     0.413750000000    -0.433578   
O466     O      0.744720000000     0.968410000000     0.325650000000    -0.432374   
O467     O      0.787990000000     0.968500000000     0.370110000000    -0.434365   
O468     O      0.700070000000     0.968410000000     0.369290000000    -0.433068   
O469     O      0.699950000000     0.519560000000     0.370110000000    -0.435718   
O470     O      0.787870000000     0.519650000000     0.369270000000    -0.434555   
O471     O      0.743220000000     0.519630000000     0.325640000000    -0.433968   
O472     O      0.744290000000     0.519610000000     0.413750000000    -0.43507    
O473     O      0.787990000000     0.718410000000     0.370100000000    -0.435813   
O474     O      0.700070000000     0.718320000000     0.369280000000    -0.434522   
O475     O      0.744720000000     0.718330000000     0.325640000000    -0.433965   
O476     O      0.743670000000     0.718360000000     0.413750000000    -0.434944   
O477     O      0.744290000000     0.769510000000     0.413750000000    -0.435055   
O478     O      0.743220000000     0.769550000000     0.325640000000    -0.433982   
O479     O      0.699950000000     0.769470000000     0.370110000000    -0.435703   
O480     O      0.787870000000     0.769560000000     0.369270000000    -0.434657   
O481     O      0.494320000000     0.968460000000     0.576190000000    -0.43369    
O482     O      0.993270000000     0.968400000000     0.664300000000    -0.433103   
O483     O      0.949990000000     0.968490000000     0.619840000000    -0.433366   
O484     O      0.537910000000     0.968400000000     0.620660000000    -0.432954   
O485     O      0.538030000000     0.519550000000     0.619840000000    -0.435861   
O486     O      0.950110000000     0.519640000000     0.620680000000    -0.433579   
O487     O      0.494760000000     0.519620000000     0.664310000000    -0.433831   
O488     O      0.993700000000     0.519610000000     0.576200000000    -0.435075   
O489     O      0.537750000000     0.769920000000     0.620690000000    -0.434346   
O490     O      0.949830000000     0.769090000000     0.619810000000    -0.434991   
O491     O      0.493080000000     0.769530000000     0.664300000000    -0.433975   
O492     O      0.994180000000     0.769510000000     0.576190000000    -0.435254   
O493     O      0.493850000000     0.718360000000     0.576190000000    -0.435104   
O494     O      0.994950000000     0.718330000000     0.664300000000    -0.435468   
O495     O      0.950280000000     0.717940000000     0.620700000000    -0.433311   
O496     O      0.538200000000     0.718780000000     0.619810000000    -0.436204   
O497     O      0.744760000000     0.519620000000     0.664310000000    -0.43377    
O498     O      0.743700000000     0.519610000000     0.576200000000    -0.434985   
O499     O      0.700110000000     0.519640000000     0.620670000000    -0.434538   
O500     O      0.788030000000     0.519550000000     0.619840000000    -0.435792   
O501     O      0.787910000000     0.968400000000     0.620660000000    -0.4332     
O502     O      0.699990000000     0.968490000000     0.619830000000    -0.434086   
O503     O      0.744320000000     0.968460000000     0.576190000000    -0.433623   
O504     O      0.743260000000     0.968400000000     0.664290000000    -0.432326   
O505     O      0.744950000000     0.769530000000     0.664300000000    -0.433937   
O506     O      0.743860000000     0.769510000000     0.576190000000    -0.435122   
O507     O      0.700280000000     0.769920000000     0.620680000000    -0.434478   
O508     O      0.788200000000     0.769090000000     0.619810000000    -0.436      
O509     O      0.787750000000     0.717940000000     0.620680000000    -0.434199   
O510     O      0.699830000000     0.718780000000     0.619810000000    -0.436186   
O511     O      0.744170000000     0.718360000000     0.576190000000    -0.435211   
O512     O      0.743080000000     0.718330000000     0.664300000000    -0.433937   


