data_structure

_audit_creation_method RASPA-1.0
_audit_creation_date 2023-5-22
_audit_author_name 'Poobodin Mano'

_cell_length_a    33.0657
_cell_length_b    33.0656
_cell_length_c    27.7046
_cell_angle_alpha 90.0011
_cell_angle_beta  89.9976
_cell_angle_gamma 89.9958
_cell_volume      30290.5

_symmetry_cell_setting          triclinic
_symmetry_space_group_name_Hall 'P 1'
_symmetry_space_group_name_H-M  'P 1'
_symmetry_Int_Tables_number     1

_symmetry_equiv_pos_as_xyz 'x,y,z'

loop_
_atom_site_label
_atom_site_type_symbol
_atom_site_fract_x
_atom_site_fract_y
_atom_site_fract_z
_atom_site_charge
C1       C      0.403820000000     0.279870000000     0.085060000000     0.37839    
C2       C      0.512930000000     0.279830000000     0.955380000000     0.378583   
C3       C      0.403910000000     0.279800000000     0.955280000000     0.378512   
C4       C      0.512850000000     0.279890000000     0.085160000000     0.378623   
C5       C      0.184230000000     0.499390000000     0.955070000000     0.378573   
C6       C      0.184120000000     0.608490000000     0.084750000000     0.378633   
C7       C      0.184170000000     0.499470000000     0.084850000000     0.378493   
C8       C      0.184180000000     0.608410000000     0.954970000000     0.378635   
C9       C      0.512770000000     0.828060000000     0.955080000000     0.378318   
C10      C      0.403660000000     0.828100000000     0.084760000000     0.378685   
C11      C      0.512680000000     0.828130000000     0.084860000000     0.378404   
C12      C      0.403740000000     0.828040000000     0.954980000000     0.378516   
C13      C      0.732410000000     0.499520000000     0.085180000000     0.378531   
C14      C      0.732430000000     0.608450000000     0.955300000000     0.378582   
C15      C      0.732470000000     0.499440000000     0.955390000000     0.378553   
C16      C      0.732360000000     0.608540000000     0.085080000000     0.378599   
C17      C      0.232350000000     0.999470000000     0.454960000000     0.376693   
C18      C      0.232480000000     0.108400000000     0.584850000000     0.378726   
C19      C      0.232430000000     0.999390000000     0.584740000000     0.37682    
C20      C      0.232400000000     0.108500000000     0.455070000000     0.378622   
C21      C      0.012670000000     0.779870000000     0.454970000000     0.376729   
C22      C      0.903760000000     0.779820000000     0.584880000000     0.378727   
C23      C      0.012780000000     0.779810000000     0.584750000000     0.376701   
C24      C      0.903650000000     0.779890000000     0.455090000000     0.378669   
C25      C      0.684240000000     0.108460000000     0.585180000000     0.378623   
C26      C      0.684110000000     0.999530000000     0.455290000000     0.376747   
C27      C      0.684170000000     0.108540000000     0.455400000000     0.378739   
C28      C      0.684190000000     0.999430000000     0.585070000000     0.376706   
C29      C      0.903920000000     0.328060000000     0.585170000000     0.378585   
C30      C      0.012830000000     0.328110000000     0.455260000000     0.376749   
C31      C      0.903820000000     0.328130000000     0.455390000000     0.378702   
C32      C      0.012940000000     0.328040000000     0.585050000000     0.376658   
C33      C      0.270910000000     0.290390000000     0.219150000000     0.378505   
C34      C      0.145600000000     0.317700000000     0.320960000000     0.378707   
C35      C      0.194610000000     0.366690000000     0.219130000000     0.378359   
C36      C      0.221910000000     0.241400000000     0.320960000000     0.378646   
C37      C      0.721940000000     0.366720000000     0.219420000000     0.378382   
C38      C      0.694630000000     0.241420000000     0.321250000000     0.378541   
C39      C      0.645640000000     0.290410000000     0.219420000000     0.378554   
C40      C      0.770930000000     0.317720000000     0.321250000000     0.378686   
C41      C      0.771110000000     0.317570000000     0.719410000000     0.378394   
C42      C      0.645810000000     0.290270000000     0.821230000000     0.378546   
C43      C      0.694800000000     0.241270000000     0.719400000000     0.3786     
C44      C      0.722100000000     0.366570000000     0.821230000000     0.378357   
C45      C      0.694450000000     0.866750000000     0.320980000000     0.378678   
C46      C      0.721770000000     0.741450000000     0.219180000000     0.37866    
C47      C      0.770750000000     0.790450000000     0.320990000000     0.378721   
C48      C      0.645460000000     0.817750000000     0.219150000000     0.378581   
C49      C      0.770990000000     0.790230000000     0.719180000000     0.37849    
C50      C      0.645680000000     0.817540000000     0.820990000000     0.378711   
C51      C      0.694690000000     0.866540000000     0.719180000000     0.378487   
C52      C      0.721990000000     0.741240000000     0.821010000000     0.378747   
C53      C      0.221790000000     0.866660000000     0.320740000000     0.378595   
C54      C      0.194490000000     0.741360000000     0.218920000000     0.378457   
C55      C      0.145480000000     0.790360000000     0.320730000000     0.378454   
C56      C      0.270790000000     0.817660000000     0.218920000000     0.378484   
C57      C      0.221960000000     0.866510000000     0.718900000000     0.378571   
C58      C      0.194650000000     0.741210000000     0.820720000000     0.37852    
C59      C      0.145660000000     0.790220000000     0.718900000000     0.378627   
C60      C      0.270950000000     0.817520000000     0.820730000000     0.378433   
C61      C      0.194820000000     0.366490000000     0.820970000000     0.378423   
C62      C      0.222140000000     0.241180000000     0.719160000000     0.378649   
C63      C      0.271130000000     0.290180000000     0.820990000000     0.378524   
C64      C      0.145840000000     0.317480000000     0.719160000000     0.37856    
C65      C      0.048100000000     0.294730000000     0.654030000000    -0.00166584 
C66      C      0.045280000000     0.327340000000     0.621750000000    -0.0890288  
C67      C      0.074630000000     0.358020000000     0.623430000000    -0.00190617 
C68      C      0.107170000000     0.355240000000     0.655610000000    -0.00162626 
C69      C      0.110250000000     0.322280000000     0.687440000000    -0.0892829  
C70      C      0.079990000000     0.292470000000     0.686930000000    -0.00198709 
C71      C      0.047920000000     0.294870000000     0.386180000000    -0.00167884 
C72      C      0.045120000000     0.327450000000     0.418500000000    -0.0890799  
C73      C      0.074450000000     0.358150000000     0.416790000000    -0.00188771 
C74      C      0.106950000000     0.355420000000     0.384560000000    -0.00163068 
C75      C      0.110020000000     0.322480000000     0.352700000000    -0.0893753  
C76      C      0.079780000000     0.292650000000     0.353220000000    -0.00196579 
C77      C      0.842130000000     0.358150000000     0.417040000000    -0.00149068 
C78      C      0.871480000000     0.327470000000     0.418690000000    -0.0894925  
C79      C      0.868670000000     0.294890000000     0.386350000000    -0.00133463 
C80      C      0.836780000000     0.292670000000     0.353450000000    -0.00204141 
C81      C      0.806520000000     0.322490000000     0.352980000000    -0.0891653  
C82      C      0.809600000000     0.355420000000     0.384860000000    -0.00175914 
C83      C      0.868810000000     0.294770000000     0.654210000000    -0.00131298 
C84      C      0.871620000000     0.327380000000     0.621920000000    -0.0894253  
C85      C      0.842280000000     0.358080000000     0.623650000000    -0.00155603 
C86      C      0.809770000000     0.355320000000     0.655860000000    -0.00171118 
C87      C      0.806690000000     0.322360000000     0.687680000000    -0.0891233  
C88      C      0.836940000000     0.292530000000     0.687140000000    -0.00204196 
C89      C      0.717560000000     0.143560000000     0.654200000000    -0.00131225 
C90      C      0.684940000000     0.140760000000     0.621930000000    -0.0894693  
C91      C      0.654250000000     0.170100000000     0.623670000000    -0.00153431 
C92      C      0.657030000000     0.202610000000     0.655870000000    -0.0016926  
C93      C      0.690000000000     0.205690000000     0.687680000000    -0.0892045  
C94      C      0.719820000000     0.175430000000     0.687130000000    -0.00200848 
C95      C      0.654160000000     0.170240000000     0.417030000000    -0.00153406 
C96      C      0.684840000000     0.140870000000     0.418690000000    -0.0895173  
C97      C      0.717420000000     0.143680000000     0.386370000000    -0.00125428 
C98      C      0.719660000000     0.175560000000     0.353450000000    -0.00210134 
C99      C      0.689840000000     0.205830000000     0.352970000000    -0.0891362  
C100     C      0.656910000000     0.202760000000     0.384840000000    -0.00173414 
C101     C      0.719520000000     0.932570000000     0.353230000000    -0.00195812 
C102     C      0.689690000000     0.902330000000     0.352730000000    -0.0893457  
C103     C      0.656760000000     0.905410000000     0.384600000000    -0.00160087 
C104     C      0.654040000000     0.937910000000     0.416830000000    -0.00193313 
C105     C      0.684750000000     0.967240000000     0.418530000000    -0.0890524  
C106     C      0.717320000000     0.964430000000     0.386190000000    -0.00169074 
C107     C      0.719720000000     0.932380000000     0.686960000000    -0.00200321 
C108     C      0.689900000000     0.902120000000     0.687460000000    -0.0893255  
C109     C      0.656940000000     0.905220000000     0.655620000000    -0.00162978 
C110     C      0.654180000000     0.937750000000     0.623450000000    -0.00188615 
C111     C      0.684870000000     0.967100000000     0.621770000000    -0.0890908  
C112     C      0.717470000000     0.964270000000     0.654060000000    -0.00163683 
C113     C      0.074310000000     0.749850000000     0.416490000000    -0.00190667 
C114     C      0.044970000000     0.780550000000     0.418220000000    -0.0890628  
C115     C      0.047780000000     0.813160000000     0.385940000000    -0.00172069 
C116     C      0.079650000000     0.815400000000     0.353000000000    -0.00198392 
C117     C      0.109900000000     0.785570000000     0.352460000000    -0.089322   
C118     C      0.106820000000     0.752610000000     0.384290000000    -0.00163677 
C119     C      0.079810000000     0.815260000000     0.686700000000    -0.00202459 
C120     C      0.110070000000     0.785440000000     0.687170000000    -0.0893049  
C121     C      0.106990000000     0.752520000000     0.655290000000    -0.00161133 
C122     C      0.074470000000     0.749780000000     0.623100000000    -0.00190059 
C123     C      0.045110000000     0.780470000000     0.621450000000    -0.0890975  
C124     C      0.047920000000     0.813040000000     0.653790000000    -0.00167634 
C125     C      0.842140000000     0.749780000000     0.623360000000    -0.00147627 
C126     C      0.871470000000     0.780480000000     0.621640000000    -0.0895747  
C127     C      0.868670000000     0.813060000000     0.653960000000    -0.00123114 
C128     C      0.836810000000     0.815290000000     0.686920000000    -0.00212207 
C129     C      0.806570000000     0.785450000000     0.687450000000    -0.089135   
C130     C      0.809640000000     0.752510000000     0.655580000000    -0.00178303 
C131     C      0.868490000000     0.813200000000     0.386120000000    -0.00123361 
C132     C      0.871320000000     0.780600000000     0.418400000000    -0.0896055  
C133     C      0.841960000000     0.749910000000     0.416710000000    -0.00153619 
C134     C      0.809430000000     0.752690000000     0.384540000000    -0.00170502 
C135     C      0.806340000000     0.785650000000     0.352710000000    -0.0892221  
C136     C      0.836600000000     0.815460000000     0.353220000000    -0.0020686  
C137     C      0.199120000000     0.143660000000     0.386080000000    -0.00126732 
C138     C      0.231720000000     0.140830000000     0.418370000000    -0.0895585  
C139     C      0.262410000000     0.170180000000     0.416690000000    -0.00153662 
C140     C      0.259650000000     0.202710000000     0.384520000000    -0.00171888 
C141     C      0.226700000000     0.205810000000     0.352680000000    -0.0891771  
C142     C      0.196870000000     0.175550000000     0.353180000000    -0.00211036 
C143     C      0.197070000000     0.175360000000     0.686910000000    -0.00201349 
C144     C      0.226900000000     0.205600000000     0.687420000000    -0.0892219  
C145     C      0.259830000000     0.202520000000     0.655540000000    -0.00169742 
C146     C      0.262550000000     0.170020000000     0.623310000000    -0.00155615 
C147     C      0.231840000000     0.140690000000     0.621620000000    -0.0894774  
C148     C      0.199270000000     0.143500000000     0.653960000000    -0.00132505 
C149     C      0.199170000000     0.964250000000     0.653780000000    -0.00165296 
C150     C      0.231750000000     0.967060000000     0.621450000000    -0.0891075  
C151     C      0.262430000000     0.937700000000     0.623120000000    -0.00185209 
C152     C      0.259680000000     0.905170000000     0.655300000000    -0.00167789 
C153     C      0.226750000000     0.902100000000     0.687170000000    -0.0892551  
C154     C      0.196930000000     0.932370000000     0.686690000000    -0.00206505 
C155     C      0.196770000000     0.932500000000     0.353020000000    -0.00200417 
C156     C      0.226590000000     0.902250000000     0.352460000000    -0.0893026  
C157     C      0.259570000000     0.905320000000     0.384280000000    -0.00169562 
C158     C      0.262340000000     0.937830000000     0.416480000000    -0.00184624 
C159     C      0.231650000000     0.967180000000     0.418220000000    -0.0891676  
C160     C      0.199030000000     0.964370000000     0.385950000000    -0.00167478 
C161     C      0.759680000000     0.405380000000     0.155860000000    -0.00175109 
C162     C      0.726720000000     0.402300000000     0.187690000000    -0.0891575  
C163     C      0.696890000000     0.432550000000     0.187150000000    -0.00209746 
C164     C      0.699130000000     0.464410000000     0.154220000000    -0.00132264 
C165     C      0.731730000000     0.467220000000     0.121920000000    -0.0895734  
C166     C      0.762440000000     0.437890000000     0.123650000000    -0.00158019 
C167     C      0.762330000000     0.670230000000     0.123470000000    -0.00156463 
C168     C      0.731650000000     0.640870000000     0.121780000000    -0.089598   
C169     C      0.699030000000     0.643700000000     0.154060000000    -0.00133043 
C170     C      0.696770000000     0.675590000000     0.186950000000    -0.0020784  
C171     C      0.726580000000     0.705850000000     0.187460000000    -0.0891607  
C172     C      0.759540000000     0.702770000000     0.155640000000    -0.00174539 
C173     C      0.696940000000     0.675410000000     0.853270000000    -0.00204881 
C174     C      0.726770000000     0.705660000000     0.852750000000    -0.0892104  
C175     C      0.759710000000     0.702590000000     0.884610000000    -0.00166457 
C176     C      0.762450000000     0.670090000000     0.916830000000    -0.00153551 
C177     C      0.731760000000     0.640750000000     0.918540000000    -0.0893825  
C178     C      0.699170000000     0.643550000000     0.886220000000    -0.00135051 
C179     C      0.699260000000     0.464290000000     0.886340000000    -0.00128505 
C180     C      0.731830000000     0.467110000000     0.918680000000    -0.0894577  
C181     C      0.762520000000     0.437760000000     0.917030000000    -0.00150498 
C182     C      0.759790000000     0.405230000000     0.884840000000    -0.00170234 
C183     C      0.726870000000     0.402150000000     0.852960000000    -0.0891044  
C184     C      0.697040000000     0.432410000000     0.853430000000    -0.00211195 
C185     C      0.547780000000     0.794900000000     0.153950000000    -0.00136826 
C186     C      0.544970000000     0.827480000000     0.121620000000    -0.0895294  
C187     C      0.574310000000     0.858180000000     0.123320000000    -0.00160816 
C188     C      0.606810000000     0.855450000000     0.155540000000    -0.0018084  
C189     C      0.609880000000     0.822510000000     0.187410000000    -0.0892289  
C190     C      0.579630000000     0.792690000000     0.186900000000    -0.00208623 
C191     C      0.309450000000     0.855380000000     0.155320000000    -0.00186535 
C192     C      0.306370000000     0.822440000000     0.187190000000    -0.0891959  
C193     C      0.336640000000     0.792630000000     0.186710000000    -0.00213849 
C194     C      0.368520000000     0.794860000000     0.153800000000    -0.00129241 
C195     C      0.371330000000     0.827440000000     0.121470000000    -0.0896742  
C196     C      0.341980000000     0.858120000000     0.123140000000    -0.00151739 
C197     C      0.336780000000     0.792480000000     0.853010000000    -0.00210531 
C198     C      0.306530000000     0.822310000000     0.852460000000    -0.0891238  
C199     C      0.309600000000     0.855280000000     0.884280000000    -0.00178256 
C200     C      0.342110000000     0.858050000000     0.916490000000    -0.00153373 
C201     C      0.371450000000     0.827350000000     0.918230000000    -0.0895111  
C202     C      0.368640000000     0.794730000000     0.885950000000    -0.00131287 
C203     C      0.574460000000     0.858060000000     0.916710000000    -0.00159651 
C204     C      0.545100000000     0.827370000000     0.918390000000    -0.0894641  
C205     C      0.547930000000     0.794770000000     0.886100000000    -0.00133183 
C206     C      0.579820000000     0.792520000000     0.853200000000    -0.00203322 
C207     C      0.610090000000     0.822340000000     0.852700000000    -0.0892743  
C208     C      0.606990000000     0.855290000000     0.884540000000    -0.00165082 
C209     C      0.154070000000     0.670170000000     0.123110000000    -0.00158026 
C210     C      0.184760000000     0.640820000000     0.121460000000    -0.0896269  
C211     C      0.217330000000     0.643640000000     0.153800000000    -0.0013154  
C212     C      0.219550000000     0.675520000000     0.186710000000    -0.00214818 
C213     C      0.189720000000     0.705780000000     0.187180000000    -0.0891795  
C214     C      0.156800000000     0.702700000000     0.155300000000    -0.00180678 
C215     C      0.154140000000     0.437840000000     0.123310000000    -0.00155109 
C216     C      0.184830000000     0.467180000000     0.121600000000    -0.0896604  
C217     C      0.217420000000     0.464380000000     0.153920000000    -0.00127565 
C218     C      0.219650000000     0.432530000000     0.186870000000    -0.00222874 
C219     C      0.189820000000     0.402270000000     0.187390000000    -0.0890746  
C220     C      0.156880000000     0.405340000000     0.155530000000    -0.00184844 
C221     C      0.154270000000     0.437700000000     0.916670000000    -0.00153412 
C222     C      0.184950000000     0.467060000000     0.918360000000    -0.0894935  
C223     C      0.217560000000     0.464230000000     0.886080000000    -0.00127794 
C224     C      0.219830000000     0.432350000000     0.853190000000    -0.00212824 
C225     C      0.190010000000     0.402080000000     0.852680000000    -0.089141   
C226     C      0.157050000000     0.405160000000     0.884500000000    -0.00175046 
C227     C      0.154150000000     0.670040000000     0.916490000000    -0.001581   
C228     C      0.184860000000     0.640710000000     0.918220000000    -0.0894706  
C229     C      0.217460000000     0.643520000000     0.885930000000    -0.0013043  
C230     C      0.219700000000     0.675390000000     0.852990000000    -0.00205547 
C231     C      0.189870000000     0.705630000000     0.852450000000    -0.08921    
C232     C      0.156910000000     0.702550000000     0.884290000000    -0.00172041 
C233     C      0.309600000000     0.252640000000     0.155600000000    -0.00176004 
C234     C      0.306510000000     0.285590000000     0.187440000000    -0.0891367  
C235     C      0.336770000000     0.315410000000     0.186950000000    -0.00211785 
C236     C      0.368660000000     0.313160000000     0.154050000000    -0.00130509 
C237     C      0.371490000000     0.280560000000     0.121760000000    -0.0895507  
C238     C      0.342140000000     0.249870000000     0.123440000000    -0.00157852 
C239     C      0.574490000000     0.249890000000     0.123650000000    -0.00150642 
C240     C      0.545140000000     0.280580000000     0.121910000000    -0.0896307  
C241     C      0.547950000000     0.313200000000     0.154190000000    -0.00129628 
C242     C      0.579810000000     0.315450000000     0.187130000000    -0.0021365  
C243     C      0.610060000000     0.285620000000     0.187680000000    -0.089122   
C244     C      0.606990000000     0.252650000000     0.155860000000    -0.00179652 
C245     C      0.548070000000     0.313070000000     0.886350000000    -0.00124763 
C246     C      0.545260000000     0.280490000000     0.918670000000    -0.0894911  
C247     C      0.574620000000     0.249810000000     0.917010000000    -0.001479   
C248     C      0.607140000000     0.252550000000     0.884820000000    -0.00173438 
C249     C      0.610220000000     0.285490000000     0.852950000000    -0.089103   
C250     C      0.579950000000     0.315310000000     0.853430000000    -0.00214    
C251     C      0.342290000000     0.249750000000     0.916830000000    -0.00154103 
C252     C      0.371620000000     0.280450000000     0.918520000000    -0.0894247  
C253     C      0.368810000000     0.313030000000     0.886190000000    -0.00133391 
C254     C      0.336960000000     0.315240000000     0.853250000000    -0.00200719 
C255     C      0.306710000000     0.285420000000     0.852730000000    -0.0891476  
C256     C      0.309780000000     0.252480000000     0.884600000000    -0.00171544 
H1       H      0.025750000000     0.270760000000     0.653640000000     0.042028   
H2       H      0.073220000000     0.383400000000     0.598760000000     0.0424649  
H3       H      0.130050000000     0.378690000000     0.655320000000     0.0432331  
H4       H      0.081670000000     0.266590000000     0.710830000000     0.0428984  
H5       H      0.025590000000     0.270890000000     0.386590000000     0.042014   
H6       H      0.073060000000     0.383510000000     0.441490000000     0.0424659  
H7       H      0.129820000000     0.378870000000     0.384840000000     0.0432293  
H8       H      0.081450000000     0.266780000000     0.329300000000     0.0428501  
H9       H      0.843530000000     0.383510000000     0.441750000000     0.0425316  
H10      H      0.891010000000     0.270930000000     0.386720000000     0.0422653  
H11      H      0.835100000000     0.266820000000     0.329510000000     0.0430418  
H12      H      0.786710000000     0.378860000000     0.385180000000     0.0433225  
H13      H      0.891140000000     0.270790000000     0.653780000000     0.0422778  
H14      H      0.843680000000     0.383460000000     0.598980000000     0.0425735  
H15      H      0.786900000000     0.378780000000     0.655600000000     0.0433156  
H16      H      0.835260000000     0.266650000000     0.711040000000     0.0430629  
H17      H      0.741530000000     0.121220000000     0.653760000000     0.0422772  
H18      H      0.628860000000     0.168710000000     0.599010000000     0.0425638  
H19      H      0.633580000000     0.225490000000     0.655620000000     0.0433194  
H20      H      0.745710000000     0.177100000000     0.711010000000     0.0430493  
H21      H      0.628800000000     0.168840000000     0.441730000000     0.0425534  
H22      H      0.741380000000     0.121330000000     0.386740000000     0.0422495  
H23      H      0.745520000000     0.177240000000     0.329520000000     0.0430561  
H24      H      0.633470000000     0.225650000000     0.385150000000     0.0433236  
H25      H      0.745380000000     0.930900000000     0.329290000000     0.0428609  
H26      H      0.633300000000     0.882540000000     0.384900000000     0.0432103  
H27      H      0.628690000000     0.939310000000     0.441540000000     0.042467   
H28      H      0.741300000000     0.986760000000     0.386580000000     0.0420203  
H29      H      0.745590000000     0.930690000000     0.710870000000     0.0429001  
H30      H      0.633490000000     0.882340000000     0.655330000000     0.0432283  
H31      H      0.628810000000     0.939160000000     0.598770000000     0.0424489  
H32      H      0.741440000000     0.986610000000     0.653680000000     0.0420286  
H33      H      0.072910000000     0.724470000000     0.441160000000     0.0424653  
H34      H      0.025450000000     0.837140000000     0.386360000000     0.0419461  
H35      H      0.081330000000     0.841290000000     0.329100000000     0.0427844  
H36      H      0.129690000000     0.729150000000     0.384550000000     0.043219   
H37      H      0.081480000000     0.841110000000     0.710640000000     0.0428461  
H38      H      0.129880000000     0.729070000000     0.654970000000     0.0432207  
H39      H      0.073060000000     0.724420000000     0.598390000000     0.0424523  
H40      H      0.025580000000     0.837010000000     0.653430000000     0.0419593  
H41      H      0.843530000000     0.724420000000     0.598660000000     0.0425448  
H42      H      0.891000000000     0.837040000000     0.653560000000     0.0421726  
H43      H      0.835140000000     0.841150000000     0.710850000000     0.0430003  
H44      H      0.786770000000     0.729060000000     0.655310000000     0.0433408  
H45      H      0.890840000000     0.837170000000     0.386510000000     0.0421544  
H46      H      0.843370000000     0.724530000000     0.441380000000     0.0425503  
H47      H      0.786550000000     0.729240000000     0.384820000000     0.0433034  
H48      H      0.834920000000     0.841340000000     0.329310000000     0.0429544  
H49      H      0.175150000000     0.121320000000     0.386470000000     0.0421645  
H50      H      0.287780000000     0.168760000000     0.441370000000     0.0425459  
H51      H      0.283100000000     0.225590000000     0.384810000000     0.0433095  
H52      H      0.171000000000     0.177240000000     0.329270000000     0.0429718  
H53      H      0.171210000000     0.177040000000     0.710850000000     0.042983   
H54      H      0.283290000000     0.225390000000     0.655250000000     0.043313   
H55      H      0.287910000000     0.168620000000     0.598600000000     0.0425568  
H56      H      0.175290000000     0.121170000000     0.653560000000     0.0421977  
H57      H      0.175210000000     0.986600000000     0.653410000000     0.0419609  
H58      H      0.287790000000     0.939090000000     0.598410000000     0.0424465  
H59      H      0.283120000000     0.882280000000     0.654990000000     0.0432436  
H60      H      0.171070000000     0.930700000000     0.710620000000     0.0428508  
H61      H      0.170880000000     0.930830000000     0.329130000000     0.0427871  
H62      H      0.283020000000     0.882440000000     0.384520000000     0.0432406  
H63      H      0.287730000000     0.939220000000     0.441130000000     0.0424545  
H64      H      0.175060000000     0.986710000000     0.386380000000     0.0419398  
H65      H      0.783140000000     0.382510000000     0.155590000000     0.0433091  
H66      H      0.671010000000     0.430870000000     0.211060000000     0.0429546  
H67      H      0.675150000000     0.486740000000     0.153800000000     0.0421136  
H68      H      0.787810000000     0.439290000000     0.098980000000     0.0425078  
H69      H      0.787710000000     0.668820000000     0.098800000000     0.0424895  
H70      H      0.675070000000     0.621350000000     0.153660000000     0.0421225  
H71      H      0.670880000000     0.677270000000     0.210850000000     0.0429511  
H72      H      0.782990000000     0.725650000000     0.155360000000     0.0432853  
H73      H      0.671080000000     0.677080000000     0.829350000000     0.0429798  
H74      H      0.783160000000     0.725470000000     0.884890000000     0.043377   
H75      H      0.787820000000     0.668700000000     0.941530000000     0.0426716  
H76      H      0.675200000000     0.621210000000     0.886630000000     0.0421928  
H77      H      0.675290000000     0.486640000000     0.886710000000     0.0421674  
H78      H      0.787870000000     0.439170000000     0.941740000000     0.0426763  
H79      H      0.783240000000     0.382350000000     0.885160000000     0.0434145  
H80      H      0.671190000000     0.430730000000     0.829490000000     0.0430096  
H81      H      0.525450000000     0.770920000000     0.153550000000     0.0421177  
H82      H      0.572910000000     0.883540000000     0.098610000000     0.0423877  
H83      H      0.629680000000     0.878900000000     0.155250000000     0.0432089  
H84      H      0.581310000000     0.766830000000     0.210830000000     0.0429481  
H85      H      0.286570000000     0.878820000000     0.155020000000     0.0432037  
H86      H      0.334960000000     0.766770000000     0.210640000000     0.0429666  
H87      H      0.390870000000     0.770890000000     0.153420000000     0.0420988  
H88      H      0.343380000000     0.883480000000     0.098440000000     0.0423518  
H89      H      0.335110000000     0.766600000000     0.829120000000     0.0429851  
H90      H      0.286730000000     0.878730000000     0.884540000000     0.0432861  
H91      H      0.343500000000     0.883430000000     0.941160000000     0.0425547  
H92      H      0.390980000000     0.770760000000     0.886380000000     0.0421712  
H93      H      0.573040000000     0.883440000000     0.941390000000     0.042573   
H94      H      0.525590000000     0.770800000000     0.886480000000     0.042174   
H95      H      0.581510000000     0.766640000000     0.829290000000     0.0429656  
H96      H      0.629870000000     0.878740000000     0.884840000000     0.0432754  
H97      H      0.128720000000     0.668760000000     0.098400000000     0.0423643  
H98      H      0.241300000000     0.621300000000     0.153430000000     0.0421074  
H99      H      0.245400000000     0.677200000000     0.210660000000     0.0429718  
H100     H      0.133350000000     0.725580000000     0.154980000000     0.0431824  
H101     H      0.128780000000     0.439230000000     0.098620000000     0.042379   
H102     H      0.241390000000     0.486720000000     0.153510000000     0.0420952  
H103     H      0.245510000000     0.430850000000     0.210790000000     0.0429894  
H104     H      0.133430000000     0.382460000000     0.155250000000     0.0432243  
H105     H      0.128880000000     0.439110000000     0.941340000000     0.0425629  
H106     H      0.241520000000     0.486580000000     0.886480000000     0.0421673  
H107     H      0.245710000000     0.430660000000     0.829290000000     0.0429936  
H108     H      0.133610000000     0.382280000000     0.884790000000     0.0433067  
H109     H      0.128780000000     0.668640000000     0.941170000000     0.04257    
H110     H      0.241450000000     0.621190000000     0.886350000000     0.0421661  
H111     H      0.245580000000     0.677070000000     0.829090000000     0.0429735  
H112     H      0.133450000000     0.725420000000     0.884550000000     0.0432634  
H113     H      0.286720000000     0.229190000000     0.155310000000     0.0432869  
H114     H      0.335080000000     0.341290000000     0.210860000000     0.0429724  
H115     H      0.391000000000     0.337130000000     0.153670000000     0.0421142  
H116     H      0.343550000000     0.224500000000     0.098760000000     0.0424844  
H117     H      0.573090000000     0.224500000000     0.098990000000     0.0424887  
H118     H      0.525610000000     0.337170000000     0.153760000000     0.0421117  
H119     H      0.581480000000     0.341330000000     0.211030000000     0.0429635  
H120     H      0.629860000000     0.229190000000     0.155610000000     0.043325   
H121     H      0.525720000000     0.337040000000     0.886720000000     0.0421628  
H122     H      0.573210000000     0.224450000000     0.941710000000     0.0426727  
H123     H      0.630030000000     0.229110000000     0.885130000000     0.0434266  
H124     H      0.581630000000     0.341160000000     0.829500000000     0.0430193  
H125     H      0.343680000000     0.224400000000     0.941530000000     0.0426757  
H126     H      0.391150000000     0.337010000000     0.886590000000     0.0421778  
H127     H      0.335280000000     0.341110000000     0.829310000000     0.0429723  
H128     H      0.286910000000     0.229030000000     0.884890000000     0.0433928  
Ni1      Ni     0.458370000000     0.315820000000     0.020200000000     1.00587    
Ni2      Ni     0.458390000000     0.243550000000     0.020250000000     0.983045   
Ni3      Ni     0.220140000000     0.553960000000     0.019930000000     1.00557    
Ni4      Ni     0.147880000000     0.553930000000     0.019880000000     0.98289    
Ni5      Ni     0.458200000000     0.864380000000     0.019900000000     0.982793   
Ni6      Ni     0.458220000000     0.792110000000     0.019950000000     1.00591    
Ni7      Ni     0.696450000000     0.553980000000     0.020210000000     1.00568    
Ni8      Ni     0.768710000000     0.554000000000     0.020260000000     0.983115   
Ni9      Ni     0.268710000000     0.053920000000     0.519880000000     0.984024   
Ni10     Ni     0.196450000000     0.053960000000     0.519940000000     1.00643    
Ni11     Ni     0.958220000000     0.815810000000     0.519950000000     1.00656    
Ni12     Ni     0.958210000000     0.743550000000     0.519900000000     0.983799   
Ni13     Ni     0.720140000000     0.053970000000     0.520210000000     1.00662    
Ni14     Ni     0.647880000000     0.054010000000     0.520270000000     0.983785   
Ni15     Ni     0.958380000000     0.364380000000     0.520250000000     0.983692   
Ni16     Ni     0.958370000000     0.292110000000     0.520200000000     1.00666    
Ni17     Ni     0.188390000000     0.284180000000     0.242960000000     0.994921   
Ni18     Ni     0.228120000000     0.323910000000     0.297140000000     0.994816   
Ni19     Ni     0.728150000000     0.284200000000     0.243250000000     0.994995   
Ni20     Ni     0.688420000000     0.323940000000     0.297420000000     0.994612   
Ni21     Ni     0.728320000000     0.284050000000     0.797410000000     0.994801   
Ni22     Ni     0.688590000000     0.323780000000     0.743230000000     0.995136   
Ni23     Ni     0.688240000000     0.784240000000     0.297160000000     0.994978   
Ni24     Ni     0.727970000000     0.823960000000     0.242980000000     0.994849   
Ni25     Ni     0.688470000000     0.784020000000     0.743000000000     0.99499    
Ni26     Ni     0.728200000000     0.823750000000     0.797190000000     0.995028   
Ni27     Ni     0.188270000000     0.823880000000     0.242740000000     0.99453    
Ni28     Ni     0.228000000000     0.784150000000     0.296920000000     0.995215   
Ni29     Ni     0.228170000000     0.784000000000     0.742720000000     0.994575   
Ni30     Ni     0.188440000000     0.823730000000     0.796900000000     0.995094   
Ni31     Ni     0.188620000000     0.283970000000     0.797160000000     0.994944   
Ni32     Ni     0.228350000000     0.323690000000     0.742980000000     0.994766   
O1       O      0.417610000000     0.313490000000     0.069060000000    -0.43721    
O2       O      0.499130000000     0.313450000000     0.971340000000    -0.436966   
O3       O      0.417670000000     0.313440000000     0.971270000000    -0.436809   
O4       O      0.499070000000     0.313500000000     0.069130000000    -0.437302   
O5       O      0.499600000000     0.246040000000     0.069060000000    -0.431367   
O6       O      0.417170000000     0.245980000000     0.971430000000    -0.43097    
O7       O      0.499670000000     0.245990000000     0.971510000000    -0.430933   
O8       O      0.417110000000     0.246020000000     0.068980000000    -0.431272   
O9       O      0.217840000000     0.513190000000     0.971070000000    -0.436813   
O10      O      0.217750000000     0.594720000000     0.068790000000    -0.437317   
O11      O      0.217790000000     0.513250000000     0.068860000000    -0.43716    
O12      O      0.217800000000     0.594660000000     0.970990000000    -0.436876   
O13      O      0.150340000000     0.595150000000     0.971070000000    -0.431091   
O14      O      0.150330000000     0.512720000000     0.068690000000    -0.431369   
O15      O      0.150290000000     0.595210000000     0.068620000000    -0.431407   
O16      O      0.150380000000     0.512650000000     0.971150000000    -0.431094   
O17      O      0.499480000000     0.861910000000     0.971160000000    -0.430881   
O18      O      0.416920000000     0.861940000000     0.068640000000    -0.431417   
O19      O      0.499420000000     0.861960000000     0.068710000000    -0.431359   
O20      O      0.416990000000     0.861890000000     0.971090000000    -0.431009   
O21      O      0.417520000000     0.794430000000     0.971010000000    -0.436842   
O22      O      0.498920000000     0.794490000000     0.068880000000    -0.437189   
O23      O      0.417460000000     0.794480000000     0.068800000000    -0.437437   
O24      O      0.498980000000     0.794440000000     0.971090000000    -0.436798   
O25      O      0.698790000000     0.513280000000     0.069150000000    -0.43717    
O26      O      0.698800000000     0.594680000000     0.971280000000    -0.436881   
O27      O      0.698840000000     0.513210000000     0.971360000000    -0.436901   
O28      O      0.698750000000     0.594740000000     0.069070000000    -0.437249   
O29      O      0.766210000000     0.595280000000     0.069000000000    -0.431352   
O30      O      0.766300000000     0.512720000000     0.971520000000    -0.430936   
O31      O      0.766260000000     0.595210000000     0.971450000000    -0.431102   
O32      O      0.766250000000     0.512790000000     0.069070000000    -0.431361   
O33      O      0.266210000000     0.012710000000     0.471070000000    -0.430335   
O34      O      0.266300000000     0.095130000000     0.568690000000    -0.43149    
O35      O      0.266260000000     0.012640000000     0.568610000000    -0.430504   
O36      O      0.266250000000     0.095200000000     0.471150000000    -0.43128    
O37      O      0.198790000000     0.094720000000     0.471080000000    -0.43727    
O38      O      0.198800000000     0.013190000000     0.568790000000    -0.436258   
O39      O      0.198840000000     0.094660000000     0.568870000000    -0.437275   
O40      O      0.198750000000     0.013260000000     0.471000000000    -0.436238   
O41      O      0.998910000000     0.813490000000     0.471010000000    -0.436262   
O42      O      0.917520000000     0.813450000000     0.568890000000    -0.437241   
O43      O      0.998990000000     0.813440000000     0.568790000000    -0.436267   
O44      O      0.917450000000     0.813500000000     0.471100000000    -0.437234   
O45      O      0.916920000000     0.746040000000     0.471170000000    -0.431288   
O46      O      0.999500000000     0.745980000000     0.568620000000    -0.430343   
O47      O      0.917010000000     0.745990000000     0.568720000000    -0.431454   
O48      O      0.999420000000     0.746030000000     0.471080000000    -0.430414   
O49      O      0.717840000000     0.094670000000     0.569140000000    -0.437258   
O50      O      0.717750000000     0.013270000000     0.471270000000    -0.436181   
O51      O      0.717790000000     0.094740000000     0.471350000000    -0.437238   
O52      O      0.717810000000     0.013210000000     0.569060000000    -0.436224   
O53      O      0.650350000000     0.012730000000     0.569000000000    -0.43037    
O54      O      0.650330000000     0.095290000000     0.471530000000    -0.431339   
O55      O      0.650290000000     0.012800000000     0.471450000000    -0.430428   
O56      O      0.650380000000     0.095220000000     0.569080000000    -0.431306   
O57      O      0.917170000000     0.361910000000     0.569070000000    -0.431305   
O58      O      0.999590000000     0.361940000000     0.471420000000    -0.430366   
O59      O      0.917090000000     0.361950000000     0.471520000000    -0.431395   
O60      O      0.999670000000     0.361890000000     0.568970000000    -0.430315   
O61      O      0.999140000000     0.294430000000     0.569040000000    -0.436238   
O62      O      0.917600000000     0.294490000000     0.471350000000    -0.43718    
O63      O      0.999070000000     0.294480000000     0.471250000000    -0.436159   
O64      O      0.917680000000     0.294440000000     0.569140000000    -0.437239   
O65      O      0.236980000000     0.274810000000     0.206720000000    -0.433215   
O66      O      0.142650000000     0.295890000000     0.282910000000    -0.436001   
O67      O      0.179020000000     0.332760000000     0.206710000000    -0.433206   
O68      O      0.200100000000     0.238440000000     0.282910000000    -0.435913   
O69      O      0.237490000000     0.275330000000     0.333390000000    -0.433213   
O70      O      0.216420000000     0.369660000000     0.257190000000    -0.435706   
O71      O      0.179530000000     0.333290000000     0.333380000000    -0.433198   
O72      O      0.273870000000     0.312210000000     0.257200000000    -0.435808   
O73      O      0.737520000000     0.332780000000     0.207000000000    -0.433128   
O74      O      0.716450000000     0.238460000000     0.283200000000    -0.435826   
O75      O      0.679570000000     0.274830000000     0.207000000000    -0.433237   
O76      O      0.773890000000     0.295910000000     0.283200000000    -0.435889   
O77      O      0.737000000000     0.333300000000     0.333680000000    -0.433177   
O78      O      0.642670000000     0.312230000000     0.257470000000    -0.435704   
O79      O      0.679040000000     0.275350000000     0.333670000000    -0.433071   
O80      O      0.700120000000     0.369680000000     0.257480000000    -0.435749   
O81      O      0.774070000000     0.295750000000     0.757460000000    -0.435658   
O82      O      0.679740000000     0.274680000000     0.833650000000    -0.433157   
O83      O      0.716620000000     0.238300000000     0.757450000000    -0.435648   
O84      O      0.737690000000     0.332630000000     0.833660000000    -0.432966   
O85      O      0.700290000000     0.369520000000     0.783170000000    -0.435853   
O86      O      0.679220000000     0.275200000000     0.706980000000    -0.433263   
O87      O      0.642850000000     0.312080000000     0.783170000000    -0.435897   
O88      O      0.737170000000     0.333150000000     0.706980000000    -0.433129   
O89      O      0.678870000000     0.832820000000     0.333410000000    -0.433267   
O90      O      0.699950000000     0.738490000000     0.257220000000    -0.435909   
O91      O      0.736820000000     0.774870000000     0.333410000000    -0.433252   
O92      O      0.642500000000     0.795940000000     0.257210000000    -0.435872   
O93      O      0.679390000000     0.833330000000     0.206730000000    -0.433281   
O94      O      0.773710000000     0.812260000000     0.282940000000    -0.435883   
O95      O      0.737350000000     0.775380000000     0.206750000000    -0.433328   
O96      O      0.716260000000     0.869710000000     0.282930000000    -0.435913   
O97      O      0.737060000000     0.774640000000     0.706760000000    -0.43316    
O98      O      0.642730000000     0.795730000000     0.782940000000    -0.436004   
O99      O      0.679100000000     0.832600000000     0.706750000000    -0.433105   
O100     O      0.700180000000     0.738280000000     0.782960000000    -0.435882   
O101     O      0.737570000000     0.775170000000     0.833430000000    -0.433272   
O102     O      0.716490000000     0.869490000000     0.757240000000    -0.435905   
O103     O      0.679610000000     0.833120000000     0.833430000000    -0.433194   
O104     O      0.773950000000     0.812040000000     0.757240000000    -0.435748   
O105     O      0.199970000000     0.869630000000     0.282690000000    -0.435819   
O106     O      0.178900000000     0.775300000000     0.206490000000    -0.433113   
O107     O      0.142520000000     0.812180000000     0.282680000000    -0.435832   
O108     O      0.236850000000     0.833250000000     0.206490000000    -0.433131   
O109     O      0.273740000000     0.795850000000     0.256970000000    -0.435938   
O110     O      0.179420000000     0.774780000000     0.333160000000    -0.433226   
O111     O      0.216300000000     0.738410000000     0.256970000000    -0.435927   
O112     O      0.237370000000     0.832730000000     0.333160000000    -0.433349   
O113     O      0.237550000000     0.832580000000     0.706480000000    -0.433212   
O114     O      0.216470000000     0.738250000000     0.782670000000    -0.435725   
O115     O      0.179590000000     0.774630000000     0.706470000000    -0.433176   
O116     O      0.273920000000     0.795700000000     0.782680000000    -0.435641   
O117     O      0.237010000000     0.833100000000     0.833150000000    -0.433229   
O118     O      0.142700000000     0.812030000000     0.756950000000    -0.435991   
O119     O      0.179070000000     0.775150000000     0.833140000000    -0.433224   
O120     O      0.200140000000     0.869470000000     0.756950000000    -0.435942   
O121     O      0.179240000000     0.332550000000     0.833400000000    -0.433114   
O122     O      0.200330000000     0.238220000000     0.757210000000    -0.435831   
O123     O      0.237200000000     0.274600000000     0.833410000000    -0.433172   
O124     O      0.142880000000     0.295670000000     0.757210000000    -0.435915   
O125     O      0.179770000000     0.333070000000     0.706730000000    -0.433147   
O126     O      0.274100000000     0.311990000000     0.782930000000    -0.435707   
O127     O      0.237730000000     0.275110000000     0.706740000000    -0.433235   
O128     O      0.216640000000     0.369440000000     0.782920000000    -0.435781   


