data_structure

_audit_creation_method RASPA-1.0
_audit_creation_date 2023-5-22
_audit_author_name 'Poobodin Mano'

_cell_length_a    32.5744
_cell_length_b    32.5683
_cell_length_c    32.5694
_cell_angle_alpha 89.9991
_cell_angle_beta  89.9994
_cell_angle_gamma 89.9994
_cell_volume      34552.6

_symmetry_cell_setting          triclinic
_symmetry_space_group_name_Hall 'P 1'
_symmetry_space_group_name_H-M  'P 1'
_symmetry_Int_Tables_number     1

_symmetry_equiv_pos_as_xyz 'x,y,z'

loop_
_atom_site_label
_atom_site_type_symbol
_atom_site_fract_x
_atom_site_fract_y
_atom_site_fract_z
_atom_site_charge
C1       C      0.583370000000     0.328430000000     0.990440000000     0.376044   
C2       C      0.739680000000     0.329260000000     0.991920000000     0.3765     
C3       C      0.661890000000     0.250590000000     0.989940000000     0.376215   
C4       C      0.661330000000     0.406900000000     0.992480000000     0.376497   
C5       C      0.405530000000     0.328890000000     0.991030000000     0.376254   
C6       C      0.249210000000     0.327360000000     0.993390000000     0.376475   
C7       C      0.327990000000     0.250250000000     0.993200000000     0.377022   
C8       C      0.326710000000     0.406600000000     0.991430000000     0.375929   
C9       C      0.585430000000     0.663670000000     0.995940000000     0.376403   
C10      C      0.741740000000     0.661810000000     0.997980000000     0.376863   
C11      C      0.664760000000     0.740970000000     0.998250000000     0.376527   
C12      C      0.662700000000     0.584660000000     0.995530000000     0.376613   
C13      C      0.407590000000     0.662300000000     0.994960000000     0.375947   
C14      C      0.251270000000     0.663540000000     0.995140000000     0.376575   
C15      C      0.330060000000     0.740820000000     0.996950000000     0.376797   
C16      C      0.328560000000     0.584530000000     0.993010000000     0.375808   
C17      C      0.662330000000     0.993920000000     0.582950000000     0.376316   
C18      C      0.662430000000     0.991790000000     0.739290000000     0.376525   
C19      C      0.740500000000     0.992300000000     0.660920000000     0.376287   
C20      C      0.584170000000     0.993240000000     0.661480000000     0.376348   
C21      C      0.327650000000     0.994470000000     0.586650000000     0.375934   
C22      C      0.328940000000     0.993030000000     0.742980000000     0.376643   
C23      C      0.250100000000     0.993800000000     0.665730000000     0.376303   
C24      C      0.406400000000     0.993610000000     0.664100000000     0.37631    
C25      C      0.329920000000     0.995960000000     0.408800000000     0.375814   
C26      C      0.329920000000     0.997560000000     0.252480000000     0.376587   
C27      C      0.251910000000     0.996420000000     0.330710000000     0.376501   
C28      C      0.408240000000     0.997130000000     0.330180000000     0.375741   
C29      C      0.663760000000     0.996860000000     0.405130000000     0.376325   
C30      C      0.665150000000     0.999760000000     0.248810000000     0.371888   
C31      C      0.742410000000     0.998930000000     0.327390000000     0.376638   
C32      C      0.586080000000     0.997790000000     0.326590000000     0.376014   
C33      C      0.991880000000     0.661110000000     0.587980000000     0.376325   
C34      C      0.993750000000     0.657910000000     0.744300000000     0.376894   
C35      C      0.994080000000     0.737610000000     0.667890000000     0.376587   
C36      C      0.991850000000     0.581280000000     0.664580000000     0.376403   
C37      C      0.992820000000     0.326300000000     0.581370000000     0.376393   
C38      C      0.994320000000     0.324370000000     0.737730000000     0.376702   
C39      C      0.994350000000     0.247150000000     0.658640000000     0.376847   
C40      C      0.992440000000     0.403480000000     0.660700000000     0.376394   
C41      C      0.992240000000     0.587270000000     0.330190000000     0.376123   
C42      C      0.994550000000     0.743600000000     0.333440000000     0.376865   
C43      C      0.995080000000     0.667180000000     0.253770000000     0.376426   
C44      C      0.991990000000     0.663980000000     0.410100000000     0.376413   
C45      C      0.992680000000     0.329950000000     0.403550000000     0.376445   
C46      C      0.992260000000     0.332070000000     0.247250000000     0.377031   
C47      C      0.993610000000     0.253040000000     0.324210000000     0.376448   
C48      C      0.991600000000     0.409390000000     0.326440000000     0.375907   
C49      C      0.993750000000     0.329610000000     0.070630000000     0.378565   
C50      C      0.995040000000     0.326430000000     0.914500000000     0.378119   
C51      C      0.072520000000     0.326490000000     0.993400000000     0.378266   
C52      C      0.916410000000     0.329530000000     0.992190000000     0.378607   
C53      C      0.997200000000     0.665810000000     0.077020000000     0.378453   
C54      C      0.995710000000     0.659910000000     0.920950000000     0.379207   
C55      C      0.074560000000     0.664120000000     0.998060000000     0.376056   
C56      C      0.918430000000     0.661580000000     0.999560000000     0.376109   
C57      C      0.997150000000     0.076330000000     0.326560000000     0.378333   
C58      C      0.996630000000     0.920260000000     0.331790000000     0.378371   
C59      C      0.075170000000     0.997780000000     0.329820000000     0.375256   
C60      C      0.919040000000     0.998710000000     0.328550000000     0.378623   
C61      C      0.917240000000     0.992140000000     0.661810000000     0.378493   
C62      C      0.073380000000     0.992730000000     0.665460000000     0.378606   
C63      C      0.995610000000     0.914340000000     0.666480000000     0.378401   
C64      C      0.995070000000     0.070440000000     0.660810000000     0.378269   
C65      C      0.663270000000     0.073850000000     0.991360000000     0.378077   
C66      C      0.665250000000     0.917750000000     0.996840000000     0.37816    
C67      C      0.662830000000     0.993190000000     0.916050000000     0.378334   
C68      C      0.665850000000     0.998620000000     0.072110000000     0.378764   
C69      C      0.329310000000     0.073580000000     0.996300000000     0.377849   
C70      C      0.330440000000     0.917520000000     0.999010000000     0.375373   
C71      C      0.330010000000     0.996960000000     0.075760000000     0.377947   
C72      C      0.329780000000     0.994110000000     0.919690000000     0.378247   
C73      C      0.021560000000     0.186330000000     0.298700000000     0.000535625
C74      C      0.994250000000     0.207860000000     0.324210000000    -0.0910036  
C75      C      0.967720000000     0.185890000000     0.350080000000    -0.00118921 
C76      C      0.969080000000     0.143040000000     0.351120000000    -0.000390674
C77      C      0.996000000000     0.121470000000     0.325280000000    -0.0915315  
C78      C      0.021900000000     0.143370000000     0.298700000000     0.00118608 
C79      C      0.018470000000     0.358140000000     0.180220000000     0.000711319
C80      C      0.992190000000     0.331910000000     0.202100000000    -0.0911227  
C81      C      0.966290000000     0.305060000000     0.180520000000    -0.00126712 
C82      C      0.967280000000     0.303860000000     0.137630000000    -6.75802e-05
C83      C      0.993130000000     0.330510000000     0.115750000000    -0.0918432  
C84      C      0.018390000000     0.357970000000     0.137300000000     0.00166653 
C85      C      0.954530000000     0.519960000000     0.327850000000    -0.00248937 
C86      C      0.991790000000     0.541760000000     0.329160000000    -0.0907292  
C87      C      0.028820000000     0.519610000000     0.329450000000    -0.00107134 
C88      C      0.028650000000     0.476750000000     0.328520000000    -0.00106124 
C89      C      0.991440000000     0.454900000000     0.327260000000    -0.0906402  
C90      C      0.954360000000     0.477000000000     0.326920000000    -0.00260632 
C91      C      0.022100000000     0.810400000000     0.359150000000     0.000895406
C92      C      0.995020000000     0.788760000000     0.333520000000    -0.0911863  
C93      C      0.968240000000     0.810590000000     0.307780000000    -0.0010149  
C94      C      0.969140000000     0.853450000000     0.306990000000    -0.000371164
C95      C      0.995790000000     0.875140000000     0.332990000000    -0.0919436  
C96      C      0.021960000000     0.853370000000     0.359420000000     0.00112111 
C97      C      0.023640000000     0.641270000000     0.144460000000     0.00145714 
C98      C      0.997430000000     0.667230000000     0.122180000000    -0.0914628  
C99      C      0.970770000000     0.693640000000     0.143380000000    -0.000968085
C100     C      0.969610000000     0.693300000000     0.186320000000    -0.000902437
C101     C      0.996140000000     0.667620000000     0.208590000000    -0.0909301  
C102     C      0.023520000000     0.642000000000     0.187360000000     0.000742355
C103     C      0.955510000000     0.327720000000     0.513950000000    -0.00262803 
C104     C      0.992670000000     0.327130000000     0.535880000000    -0.0908348  
C105     C      0.029830000000     0.327470000000     0.513870000000    -0.000776312
C106     C      0.029840000000     0.328390000000     0.470980000000    -0.000853742
C107     C      0.992690000000     0.329030000000     0.449040000000    -0.0908593  
C108     C      0.955520000000     0.328680000000     0.471040000000    -0.00254391 
C109     C      0.967860000000     0.299200000000     0.805070000000    -0.000930195
C110     C      0.994830000000     0.324480000000     0.782910000000    -0.0913307  
C111     C      0.022050000000     0.350210000000     0.804240000000     0.000932066
C112     C      0.021700000000     0.351270000000     0.847150000000     0.000829219
C113     C      0.995150000000     0.325560000000     0.869320000000    -0.0916709  
C114     C      0.968540000000     0.299200000000     0.848000000000    -0.00123645 
C115     C      0.967510000000     0.180420000000     0.684450000000    -0.00101404 
C116     C      0.994610000000     0.201970000000     0.658810000000    -0.0911595  
C117     C      0.021650000000     0.180040000000     0.633390000000     0.000981784
C118     C      0.021130000000     0.137070000000     0.633190000000     0.00102862 
C119     C      0.994600000000     0.115580000000     0.659500000000    -0.0915561  
C120     C      0.968010000000     0.137550000000     0.685310000000    -0.000545408
C121     C      0.028710000000     0.661730000000     0.520480000000    -0.000985532
C122     C      0.991590000000     0.661910000000     0.542470000000    -0.0907778  
C123     C      0.954410000000     0.662770000000     0.520510000000    -0.00245814 
C124     C      0.954410000000     0.663430000000     0.477540000000    -0.0025882  
C125     C      0.991600000000     0.663240000000     0.455610000000    -0.090719   
C126     C      0.028720000000     0.662390000000     0.477630000000    -0.000961866
C127     C      0.954580000000     0.513730000000     0.663460000000    -0.00252193 
C128     C      0.991680000000     0.535800000000     0.663540000000    -0.0908495  
C129     C      0.028900000000     0.513940000000     0.662600000000    -0.000873532
C130     C      0.029060000000     0.471090000000     0.661630000000    -0.000930391
C131     C      0.992020000000     0.448970000000     0.661570000000    -0.0908812  
C132     C      0.954750000000     0.470780000000     0.662490000000    -0.00238995 
C133     C      0.022350000000     0.804100000000     0.642790000000     0.000759855
C134     C      0.994910000000     0.782780000000     0.668270000000    -0.0910976  
C135     C      0.968130000000     0.804960000000     0.693770000000    -0.000987697
C136     C      0.969130000000     0.847910000000     0.694090000000    -0.000902532
C137     C      0.995860000000     0.869190000000     0.667840000000    -0.0917908  
C138     C      0.022310000000     0.847000000000     0.642040000000     0.00146278 
C139     C      0.021250000000     0.632340000000     0.811170000000     0.000876159
C140     C      0.994100000000     0.657840000000     0.789460000000    -0.0911622  
C141     C      0.967190000000     0.683500000000     0.811220000000    -0.00107951 
C142     C      0.968040000000     0.684370000000     0.854080000000    -0.000320005
C143     C      0.994800000000     0.658530000000     0.875830000000    -0.092223   
C144     C      0.021080000000     0.632150000000     0.854140000000     0.00130745 
C145     C      0.809130000000     0.025660000000     0.353760000000     0.00109261 
C146     C      0.787550000000     0.999180000000     0.327500000000    -0.0913384  
C147     C      0.809420000000     0.972650000000     0.301510000000    -0.000938721
C148     C      0.852320000000     0.973060000000     0.301310000000    -0.00030328 
C149     C      0.873910000000     0.998940000000     0.328160000000    -0.0922584  
C150     C      0.852050000000     0.025020000000     0.354610000000     0.00198667 
C151     C      0.692290000000     0.973700000000     0.182190000000    -0.0066156  
C152     C      0.666090000000     0.000370000000     0.203650000000    -0.0814319  
C153     C      0.640440000000     0.027090000000     0.181650000000    -0.004939   
C154     C      0.640160000000     0.026300000000     0.138720000000     0.00460839 
C155     C      0.666600000000     0.999860000000     0.117260000000    -0.0938744  
C156     C      0.693060000000     0.973960000000     0.139270000000     0.00193786 
C157     C      0.518460000000     0.034660000000     0.327670000000    -0.000731289
C158     C      0.540570000000     0.997560000000     0.327190000000    -0.0909468  
C159     C      0.518750000000     0.960330000000     0.327730000000    -0.0026357  
C160     C      0.475840000000     0.960200000000     0.328790000000    -0.00269792 
C161     C      0.453740000000     0.997300000000     0.329310000000    -0.090888   
C162     C      0.475570000000     0.034520000000     0.328700000000    -0.000646898
C163     C      0.184920000000     0.969670000000     0.304920000000    -0.00104268 
C164     C      0.206730000000     0.996360000000     0.330790000000    -0.0917834  
C165     C      0.185060000000     0.023380000000     0.356440000000     0.00136073 
C166     C      0.142160000000     0.023300000000     0.356670000000     0.000441734
C167     C      0.120340000000     0.997220000000     0.330200000000    -0.0909497  
C168     C      0.142010000000     0.970600000000     0.304120000000    -0.00148631 
C169     C      0.356560000000     0.971350000000     0.142770000000    -0.00113809 
C170     C      0.330130000000     0.997450000000     0.120930000000    -0.0918466  
C171     C      0.303810000000     0.023850000000     0.142550000000     0.00113442 
C172     C      0.304350000000     0.024580000000     0.185480000000     0.000825397
C173     C      0.330180000000     0.997860000000     0.207310000000    -0.0916636  
C174     C      0.356070000000     0.971050000000     0.185670000000    -0.000876919
C175     C      0.328950000000     0.032540000000     0.476580000000    -0.000744012
C176     C      0.329360000000     0.995550000000     0.454310000000    -0.0908961  
C177     C      0.329010000000     0.958220000000     0.475960000000    -0.00265275 
C178     C      0.328340000000     0.957880000000     0.518880000000    -0.00261834 
C179     C      0.327960000000     0.994870000000     0.541150000000    -0.0910729  
C180     C      0.328230000000     0.032200000000     0.519490000000    -0.000530281
C181     C      0.304040000000     0.965870000000     0.810160000000    -0.00136044 
C182     C      0.329490000000     0.992800000000     0.788140000000    -0.0917287  
C183     C      0.355170000000     0.019950000000     0.809600000000     0.0010738  
C184     C      0.355830000000     0.019790000000     0.852500000000     0.00112753 
C185     C      0.329760000000     0.993490000000     0.874530000000    -0.092321   
C186     C      0.303660000000     0.966720000000     0.853080000000    -0.000954309
C187     C      0.182990000000     0.020200000000     0.691860000000     0.000656701
C188     C      0.204920000000     0.993640000000     0.665930000000    -0.0912601  
C189     C      0.183360000000     0.966560000000     0.640260000000    -0.00129055 
C190     C      0.140490000000     0.966620000000     0.639880000000    -0.000346967
C191     C      0.118530000000     0.992730000000     0.666210000000    -0.0921633  
C192     C      0.140050000000     0.019240000000     0.692520000000     0.00142103 
C193     C      0.662780000000     0.957820000000     0.514880000000    -0.00263203 
C194     C      0.662560000000     0.994630000000     0.537450000000    -0.0909835  
C195     C      0.662710000000     0.032140000000     0.516100000000    -0.000492724
C196     C      0.663100000000     0.032840000000     0.473200000000    -0.000567749
C197     C      0.663350000000     0.996050000000     0.450620000000    -0.0911171  
C198     C      0.663180000000     0.958520000000     0.471970000000    -0.00243755 
C199     C      0.516810000000     0.030610000000     0.662280000000    -0.000530318
C200     C      0.538690000000     0.993400000000     0.662010000000    -0.0910987  
C201     C      0.516650000000     0.956270000000     0.662450000000    -0.00257385 
C202     C      0.473760000000     0.956340000000     0.663170000000    -0.00246767 
C203     C      0.451880000000     0.993540000000     0.663440000000    -0.0911919  
C204     C      0.473900000000     0.030670000000     0.662970000000    -0.000503084
C205     C      0.807510000000     0.965160000000     0.635380000000    -0.00107028 
C206     C      0.785680000000     0.992180000000     0.660930000000    -0.0913184  
C207     C      0.807340000000     0.019340000000     0.686410000000     0.000772906
C208     C      0.850220000000     0.018940000000     0.686980000000     0.00147414 
C209     C      0.872080000000     0.992390000000     0.661010000000    -0.0922728  
C210     C      0.850460000000     0.965780000000     0.634890000000    -0.000762218
C211     C      0.637020000000     0.964730000000     0.806450000000    -0.000975881
C212     C      0.662620000000     0.991570000000     0.784470000000    -0.0914809  
C213     C      0.688050000000     0.018890000000     0.805970000000     0.00103925 
C214     C      0.688420000000     0.018940000000     0.848840000000     0.00139487 
C215     C      0.662310000000     0.992670000000     0.870870000000    -0.0920083  
C216     C      0.636330000000     0.965790000000     0.849420000000    -0.000958028
C217     C      0.356270000000     0.807980000000     0.971330000000    -0.000825245
C218     C      0.330530000000     0.785980000000     0.997980000000    -0.0916997  
C219     C      0.305010000000     0.807440000000     0.025290000000     0.000886873
C220     C      0.304580000000     0.850370000000     0.025290000000     0.00049189 
C221     C      0.330730000000     0.872350000000     0.999010000000    -0.0911857  
C222     C      0.356890000000     0.850870000000     0.972350000000    -0.00149114 
C223     C      0.141820000000     0.637750000000     0.022980000000     0.000950907
C224     C      0.119720000000     0.664550000000     0.997490000000    -0.0911659  
C225     C      0.141090000000     0.691030000000     0.971010000000    -0.00123777 
C226     C      0.184020000000     0.690130000000     0.969540000000    -0.00114331 
C227     C      0.206090000000     0.663770000000     0.995550000000    -0.0914786  
C228     C      0.184690000000     0.637880000000     0.022530000000     0.000984267
C229     C      0.518170000000     0.663530000000     0.958250000000    -0.00256011 
C230     C      0.539930000000     0.663540000000     0.995540000000    -0.0910135  
C231     C      0.517740000000     0.663100000000     0.032570000000    -0.000672166
C232     C      0.474860000000     0.662630000000     0.032350000000    -0.000682525
C233     C      0.453080000000     0.662570000000     0.995090000000    -0.0909078  
C234     C      0.475250000000     0.663040000000     0.958030000000    -0.00267998 
C235     C      0.640020000000     0.808170000000     0.025590000000     0.000872429
C236     C      0.665560000000     0.786150000000     0.998750000000    -0.091432   
C237     C      0.691400000000     0.807620000000     0.971750000000    -0.000890825
C238     C      0.692020000000     0.850530000000     0.971860000000    -0.00135429 
C239     C      0.665740000000     0.872570000000     0.997950000000    -0.0919391  
C240     C      0.639590000000     0.851110000000     0.024670000000     0.000963489
C241     C      0.808930000000     0.686850000000     0.971490000000    -0.00100018 
C242     C      0.786900000000     0.661480000000     0.998460000000    -0.0915236  
C243     C      0.808350000000     0.635810000000     0.025680000000     0.00122735 
C244     C      0.851300000000     0.635090000000     0.025450000000     0.000808515
C245     C      0.873280000000     0.661100000000     0.999040000000    -0.0913975  
C246     C      0.851810000000     0.687180000000     0.972290000000    -0.000916563
C247     C      0.326920000000     0.517400000000     0.954840000000    -0.00263986 
C248     C      0.327930000000     0.539010000000     0.992230000000    -0.0907678  
C249     C      0.328300000000     0.516660000000     0.029140000000    -0.000980345
C250     C      0.327760000000     0.473810000000     0.028750000000    -0.000890755
C251     C      0.326860000000     0.452130000000     0.991430000000    -0.0908283  
C252     C      0.326400000000     0.474420000000     0.954450000000    -0.00264158 
C253     C      0.182180000000     0.352040000000     0.020920000000     0.000894145
C254     C      0.204050000000     0.326500000000     0.993990000000    -0.0911589  
C255     C      0.182450000000     0.300380000000     0.967340000000    -0.000709605
C256     C      0.139530000000     0.299520000000     0.967910000000    -0.000928741
C257     C      0.117670000000     0.325840000000     0.994090000000    -0.091581   
C258     C      0.139270000000     0.352250000000     0.020440000000     0.00159781 
C259     C      0.303100000000     0.182700000000     0.967120000000    -0.000617531
C260     C      0.328400000000     0.205090000000     0.993870000000    -0.0916274  
C261     C      0.354020000000     0.184030000000     0.021390000000     0.00139716 
C262     C      0.354850000000     0.141120000000     0.021660000000     0.000941387
C263     C      0.329000000000     0.118730000000     0.995450000000    -0.0914622  
C264     C      0.302870000000     0.139800000000     0.968410000000    -0.0011705  
C265     C      0.661460000000     0.474970000000     0.956470000000    -0.00254276 
C266     C      0.661460000000     0.452380000000     0.993260000000    -0.0910443  
C267     C      0.661750000000     0.473690000000     0.030790000000    -0.000490589
C268     C      0.662090000000     0.516590000000     0.031520000000    -0.000633413
C269     C      0.662190000000     0.539180000000     0.994730000000    -0.0910808  
C270     C      0.661840000000     0.517870000000     0.957200000000    -0.00235476 
C271     C      0.473140000000     0.329250000000     0.027660000000    -0.000759899
C272     C      0.451020000000     0.328880000000     0.990600000000    -0.0910441  
C273     C      0.472850000000     0.328330000000     0.953340000000    -0.00245769 
C274     C      0.515800000000     0.328140000000     0.953200000000    -0.00252657 
C275     C      0.537870000000     0.328510000000     0.990310000000    -0.0908691  
C276     C      0.516000000000     0.329070000000     0.027520000000    -0.000887963
C277     C      0.806590000000     0.355750000000     0.965620000000    -0.00115716 
C278     C      0.784860000000     0.329820000000     0.992350000000    -0.0912027  
C279     C      0.806610000000     0.304260000000     0.019360000000     0.000261567
C280     C      0.849510000000     0.303930000000     0.018960000000     0.00173718 
C281     C      0.871250000000     0.330180000000     0.992570000000    -0.0922692  
C282     C      0.849520000000     0.356450000000     0.966230000000    -0.000811563
C283     C      0.688640000000     0.183690000000     0.963740000000    -0.00157607 
C284     C      0.661780000000     0.205410000000     0.989510000000    -0.0909513  
C285     C      0.635190000000     0.183650000000     0.015520000000     0.000854343
C286     C      0.635090000000     0.140750000000     0.015420000000     0.00173199 
C287     C      0.662590000000     0.119010000000     0.990390000000    -0.0917047  
C288     C      0.689560000000     0.140750000000     0.964720000000    -0.000349397
H1       H      0.042180000000     0.202730000000     0.278400000000     0.0421973  
H2       H      0.946540000000     0.201910000000     0.370130000000     0.0417161  
H3       H      0.948720000000     0.126690000000     0.371740000000     0.0410042  
H4       H      0.042990000000     0.127280000000     0.278620000000     0.0421065  
H5       H      0.038630000000     0.379140000000     0.196320000000     0.0411749  
H6       H      0.945940000000     0.284420000000     0.196860000000     0.0418852  
H7       H      0.947420000000     0.282580000000     0.121530000000     0.0407424  
H8       H      0.038650000000     0.378680000000     0.120940000000     0.0403823  
H9       H      0.925420000000     0.536040000000     0.327580000000     0.0449605  
H10      H      0.058100000000     0.535340000000     0.330420000000     0.0444267  
H11      H      0.057820000000     0.460790000000     0.328810000000     0.0445503  
H12      H      0.925140000000     0.461160000000     0.325960000000     0.044932   
H13      H      0.042880000000     0.794090000000     0.379360000000     0.0412076  
H14      H      0.947220000000     0.794470000000     0.287660000000     0.0406469  
H15      H      0.948620000000     0.869700000000     0.286450000000     0.0402768  
H16      H      0.042900000000     0.869570000000     0.379560000000     0.0412108  
H17      H      0.044500000000     0.620720000000     0.128660000000     0.0404555  
H18      H      0.950140000000     0.713730000000     0.126730000000     0.0414378  
H19      H      0.948370000000     0.713420000000     0.202150000000     0.0404164  
H20      H      0.044140000000     0.621840000000     0.203960000000     0.0412618  
H21      H      0.926340000000     0.327500000000     0.529890000000     0.0448259  
H22      H      0.059050000000     0.327020000000     0.529740000000     0.0447247  
H23      H      0.059030000000     0.328630000000     0.455060000000     0.0447583  
H24      H      0.926320000000     0.329120000000     0.455140000000     0.0447693  
H25      H      0.946710000000     0.279030000000     0.789180000000     0.0402188  
H26      H      0.042970000000     0.370090000000     0.787700000000     0.0415002  
H27      H      0.042580000000     0.371730000000     0.863040000000     0.0418615  
H28      H      0.947690000000     0.279240000000     0.864540000000     0.0413299  
H29      H      0.946490000000     0.196760000000     0.704400000000     0.0404284  
H30      H      0.042670000000     0.196130000000     0.613240000000     0.0414111  
H31      H      0.042040000000     0.120650000000     0.613200000000     0.0417988  
H32      H      0.947240000000     0.121520000000     0.705780000000     0.0402079  
H33      H      0.057940000000     0.661080000000     0.536330000000     0.0445014  
H34      H      0.925240000000     0.662920000000     0.536470000000     0.0449295  
H35      H      0.925260000000     0.664080000000     0.461560000000     0.0448857  
H36      H      0.057960000000     0.662230000000     0.461800000000     0.0446382  
H37      H      0.925360000000     0.529580000000     0.664160000000     0.0448846  
H38      H      0.058070000000     0.529890000000     0.662630000000     0.0447152  
H39      H      0.058350000000     0.455350000000     0.660950000000     0.044555   
H40      H      0.925640000000     0.454710000000     0.662480000000     0.044954   
H41      H      0.043150000000     0.787570000000     0.622770000000     0.041368   
H42      H      0.946840000000     0.789060000000     0.713790000000     0.0402965  
H43      H      0.948330000000     0.864500000000     0.714070000000     0.0409934  
H44      H      0.043250000000     0.862860000000     0.621630000000     0.0404656  
H45      H      0.042140000000     0.612200000000     0.794910000000     0.0413533  
H46      H      0.946110000000     0.703520000000     0.795040000000     0.040535   
H47      H      0.947450000000     0.704870000000     0.870280000000     0.0399313  
H48      H      0.042100000000     0.612140000000     0.870390000000     0.0412748  
H49      H      0.792800000000     0.046240000000     0.374170000000     0.0413395  
H50      H      0.793310000000     0.952080000000     0.280910000000     0.0402277  
H51      H      0.868650000000     0.952620000000     0.280760000000     0.040025   
H52      H      0.868180000000     0.045350000000     0.375430000000     0.0405321  
H53      H      0.712440000000     0.952950000000     0.198630000000     0.0417717  
H54      H      0.619910000000     0.047800000000     0.197650000000     0.0425574  
H55      H      0.619580000000     0.046620000000     0.122260000000     0.0399853  
H56      H      0.713550000000     0.953190000000     0.123280000000     0.040824   
H57      H      0.534250000000     0.063920000000     0.327300000000     0.0445967  
H58      H      0.534760000000     0.931190000000     0.327430000000     0.044784   
H59      H      0.460040000000     0.930940000000     0.329180000000     0.0446904  
H60      H      0.459570000000     0.063670000000     0.329030000000     0.0447272  
H61      H      0.201060000000     0.948710000000     0.284750000000     0.0418723  
H62      H      0.201330000000     0.044140000000     0.376730000000     0.0417155  
H63      H      0.126020000000     0.044170000000     0.376950000000     0.0423466  
H64      H      0.125740000000     0.950090000000     0.283600000000     0.0424479  
H65      H      0.377000000000     0.950630000000     0.126660000000     0.0421095  
H66      H      0.283300000000     0.044350000000     0.126240000000     0.0424687  
H67      H      0.284020000000     0.045380000000     0.201630000000     0.0420116  
H68      H      0.376340000000     0.950290000000     0.201950000000     0.0416248  
H69      H      0.329150000000     0.061880000000     0.460920000000     0.0446246  
H70      H      0.329280000000     0.929140000000     0.459820000000     0.0447657  
H71      H      0.328150000000     0.928540000000     0.534540000000     0.0445929  
H72      H      0.327990000000     0.061280000000     0.535640000000     0.0447342  
H73      H      0.283860000000     0.944810000000     0.794160000000     0.0418396  
H74      H      0.375130000000     0.040890000000     0.793180000000     0.0419265  
H75      H      0.376100000000     0.040790000000     0.868460000000     0.0422836  
H76      H      0.283440000000     0.946050000000     0.869530000000     0.0417775  
H77      H      0.199070000000     0.041180000000     0.712060000000     0.0419339  
H78      H      0.199690000000     0.945890000000     0.619940000000     0.041577   
H79      H      0.124460000000     0.945860000000     0.619410000000     0.0406624  
H80      H      0.123650000000     0.039780000000     0.712900000000     0.0419989  
H81      H      0.662690000000     0.928370000000     0.530310000000     0.0447589  
H82      H      0.662560000000     0.061090000000     0.532470000000     0.0448577  
H83      H      0.663210000000     0.062310000000     0.457790000000     0.0446273  
H84      H      0.663350000000     0.929590000000     0.455570000000     0.044917   
H85      H      0.532780000000     0.059770000000     0.661960000000     0.0448523  
H86      H      0.532490000000     0.927030000000     0.662290000000     0.0447478  
H87      H      0.457810000000     0.927160000000     0.663500000000     0.0448343  
H88      H      0.458050000000     0.059900000000     0.663150000000     0.0446544  
H89      H      0.791350000000     0.944100000000     0.615340000000     0.0414798  
H90      H      0.791080000000     0.040350000000     0.706440000000     0.0402607  
H91      H      0.866340000000     0.039790000000     0.707280000000     0.040155   
H92      H      0.866780000000     0.944910000000     0.614770000000     0.0415196  
H93      H      0.616990000000     0.943570000000     0.790400000000     0.0411493  
H94      H      0.708090000000     0.039800000000     0.789590000000     0.040302   
H95      H      0.708620000000     0.040000000000     0.864820000000     0.0405437  
H96      H      0.616110000000     0.945130000000     0.865880000000     0.0412901  
H97      H      0.376300000000     0.791990000000     0.950130000000     0.0415676  
H98      H      0.284800000000     0.791010000000     0.045980000000     0.0419826  
H99      H      0.284260000000     0.866390000000     0.046190000000     0.0420584  
H100     H      0.377160000000     0.867270000000     0.951680000000     0.041993   
H101     H      0.125920000000     0.617140000000     0.043690000000     0.0407979  
H102     H      0.124580000000     0.711770000000     0.950920000000     0.0420949  
H103     H      0.199980000000     0.710530000000     0.948660000000     0.0417757  
H104     H      0.201130000000     0.617240000000     0.042800000000     0.0414168  
H105     H      0.534260000000     0.663820000000     0.929150000000     0.0447629  
H106     H      0.533460000000     0.663080000000     0.061880000000     0.0446627  
H107     H      0.458820000000     0.662310000000     0.061480000000     0.0448364  
H108     H      0.459470000000     0.663050000000     0.928750000000     0.0446438  
H109     H      0.619720000000     0.792160000000     0.046520000000     0.0413665  
H110     H      0.711440000000     0.791190000000     0.950890000000     0.0403187  
H111     H      0.712310000000     0.866500000000     0.950890000000     0.0414354  
H112     H      0.619180000000     0.867550000000     0.045150000000     0.0418531  
H113     H      0.792970000000     0.706970000000     0.950350000000     0.0403325  
H114     H      0.791890000000     0.615870000000     0.046600000000     0.041576   
H115     H      0.867320000000     0.614870000000     0.046450000000     0.0417089  
H116     H      0.868220000000     0.707380000000     0.951560000000     0.0401906  
H117     H      0.326590000000     0.533650000000     0.925820000000     0.0447978  
H118     H      0.329030000000     0.532220000000     0.058520000000     0.0444964  
H119     H      0.328140000000     0.457710000000     0.057850000000     0.0445596  
H120     H      0.325710000000     0.458700000000     0.925150000000     0.0447336  
H121     H      0.198280000000     0.372510000000     0.041620000000     0.0410448  
H122     H      0.198790000000     0.280290000000     0.946450000000     0.0406213  
H123     H      0.123410000000     0.279060000000     0.947220000000     0.0415688  
H124     H      0.122940000000     0.372710000000     0.040980000000     0.0404826  
H125     H      0.282980000000     0.198400000000     0.945780000000     0.040656   
H126     H      0.373890000000     0.200760000000     0.042180000000     0.0414516  
H127     H      0.375130000000     0.125430000000     0.042860000000     0.0421615  
H128     H      0.282810000000     0.123060000000     0.947810000000     0.0419949  
H129     H      0.661250000000     0.459570000000     0.927000000000     0.0447784  
H130     H      0.661750000000     0.457280000000     0.059720000000     0.0448977  
H131     H      0.662350000000     0.531990000000     0.060990000000     0.0446913  
H132     H      0.661880000000     0.534280000000     0.928270000000     0.0449464  
H133     H      0.457390000000     0.329660000000     0.056950000000     0.044522   
H134     H      0.456790000000     0.328010000000     0.924230000000     0.0449333  
H135     H      0.531660000000     0.327720000000     0.923970000000     0.0449332  
H136     H      0.531950000000     0.329370000000     0.056700000000     0.0446041  
H137     H      0.790360000000     0.375860000000     0.944660000000     0.0418124  
H138     H      0.790440000000     0.283930000000     0.040140000000     0.0421506  
H139     H      0.865730000000     0.283520000000     0.039640000000     0.041027   
H140     H      0.865730000000     0.376810000000     0.945510000000     0.0417009  
H141     H      0.709540000000     0.199930000000     0.943580000000     0.0410883  
H142     H      0.614150000000     0.199850000000     0.035570000000     0.0414194  
H143     H      0.614150000000     0.124550000000     0.035570000000     0.0408775  
H144     H      0.710920000000     0.124510000000     0.945050000000     0.0401341  
Ni1      Ni     0.662030000000     0.329370000000     0.954500000000     0.989481   
Ni2      Ni     0.661180000000     0.328000000000     0.027800000000     0.999481   
Ni3      Ni     0.327910000000     0.328810000000     0.028860000000     1.0004     
Ni4      Ni     0.326670000000     0.327830000000     0.955540000000     0.98853    
Ni5      Ni     0.663100000000     0.662160000000     0.033600000000     0.995813   
Ni6      Ni     0.664230000000     0.663590000000     0.960280000000     0.993659   
Ni7      Ni     0.329420000000     0.663760000000     0.958320000000     0.988554   
Ni8      Ni     0.329270000000     0.661800000000     0.031600000000     0.999887   
Ni9      Ni     0.662710000000     0.029450000000     0.661770000000     0.998813   
Ni10     Ni     0.662090000000     0.956120000000     0.660600000000     0.990316   
Ni11     Ni     0.328030000000     0.957080000000     0.664470000000     0.993085   
Ni12     Ni     0.328330000000     0.030390000000     0.665340000000     0.996161   
Ni13     Ni     0.329720000000     0.033420000000     0.331030000000     0.996313   
Ni14     Ni     0.330260000000     0.960110000000     0.330080000000     0.992385   
Ni15     Ni     0.664700000000     0.961680000000     0.326140000000     0.99304    
Ni16     Ni     0.663970000000     0.035010000000     0.327660000000     0.995834   
Ni17     Ni     0.956190000000     0.660110000000     0.666730000000     0.989608   
Ni18     Ni     0.029500000000     0.658920000000     0.665720000000     0.99978    
Ni19     Ni     0.030130000000     0.325750000000     0.659170000000     0.997527   
Ni20     Ni     0.956810000000     0.324730000000     0.660060000000     0.991825   
Ni21     Ni     0.956770000000     0.666140000000     0.331070000000     0.989079   
Ni22     Ni     0.030070000000     0.664910000000     0.332650000000     0.999245   
Ni23     Ni     0.955860000000     0.330590000000     0.325520000000     0.991035   
Ni24     Ni     0.029160000000     0.331670000000     0.325100000000     0.997791   
Ni25     Ni     0.993560000000     0.291330000000     0.993310000000     0.992263   
Ni26     Ni     0.995380000000     0.364700000000     0.991860000000     0.991029   
Ni27     Ni     0.997290000000     0.626180000000     0.000520000000     0.997871   
Ni28     Ni     0.995710000000     0.699530000000     0.997420000000     0.989728   
Ni29     Ni     0.996810000000     0.999690000000     0.365860000000     0.988901   
Ni30     Ni     0.997390000000     0.996900000000     0.292510000000     0.992878   
Ni31     Ni     0.996360000000     0.990890000000     0.626970000000     0.99153    
Ni32     Ni     0.994270000000     0.993890000000     0.700310000000     0.991734   
Ni33     Ni     0.700970000000     0.996240000000     0.993170000000     0.991851   
Ni34     Ni     0.627610000000     0.995360000000     0.995000000000     0.989835   
Ni35     Ni     0.293220000000     0.995280000000     0.997780000000     0.98878    
Ni36     Ni     0.366530000000     0.995820000000     0.997660000000     0.99168    
O1       O      0.603120000000     0.327950000000     0.956380000000    -0.432652   
O2       O      0.720730000000     0.331080000000     0.957520000000    -0.433412   
O3       O      0.663690000000     0.270440000000     0.956010000000    -0.431644   
O4       O      0.660620000000     0.388060000000     0.957940000000    -0.434322   
O5       O      0.662100000000     0.386840000000     0.026330000000    -0.433345   
O6       O      0.660020000000     0.269360000000     0.024430000000    -0.433326   
O7       O      0.720020000000     0.326950000000     0.025910000000    -0.431964   
O8       O      0.602530000000     0.328950000000     0.024790000000    -0.434634   
O9       O      0.386560000000     0.329260000000     0.025490000000    -0.434706   
O10      O      0.269030000000     0.328470000000     0.027350000000    -0.431816   
O11      O      0.328680000000     0.270010000000     0.027180000000    -0.432854   
O12      O      0.327380000000     0.387430000000     0.025770000000    -0.435326   
O13      O      0.326210000000     0.386830000000     0.957370000000    -0.43195    
O14      O      0.326950000000     0.269070000000     0.958680000000    -0.43287    
O15      O      0.267970000000     0.326970000000     0.958840000000    -0.433153   
O16      O      0.385580000000     0.328350000000     0.957090000000    -0.432817   
O17      O      0.604440000000     0.662890000000     0.030370000000    -0.434068   
O18      O      0.721970000000     0.661150000000     0.031980000000    -0.431479   
O19      O      0.663600000000     0.721100000000     0.032190000000    -0.431008   
O20      O      0.662420000000     0.603460000000     0.030090000000    -0.433542   
O21      O      0.663450000000     0.604740000000     0.961690000000    -0.434377   
O22      O      0.665250000000     0.722240000000     0.963690000000    -0.434414   
O23      O      0.722920000000     0.663060000000     0.963490000000    -0.434164   
O24      O      0.605330000000     0.664230000000     0.961980000000    -0.433674   
O25      O      0.388190000000     0.662120000000     0.960720000000    -0.433603   
O26      O      0.270530000000     0.665650000000     0.960890000000    -0.431536   
O27      O      0.331350000000     0.722390000000     0.962250000000    -0.433539   
O28      O      0.327750000000     0.604810000000     0.959270000000    -0.432381   
O29      O      0.329860000000     0.603180000000     0.027630000000    -0.434649   
O30      O      0.328390000000     0.720670000000     0.030690000000    -0.432126   
O31      O      0.270620000000     0.661000000000     0.029250000000    -0.434013   
O32      O      0.388060000000     0.662530000000     0.029140000000    -0.433452   
O33      O      0.662600000000     0.027820000000     0.602930000000    -0.433327   
O34      O      0.663050000000     0.026260000000     0.720410000000    -0.433545   
O35      O      0.721420000000     0.026670000000     0.661870000000    -0.432896   
O36      O      0.603850000000     0.027340000000     0.661880000000    -0.432655   
O37      O      0.603390000000     0.958930000000     0.660810000000    -0.434903   
O38      O      0.720970000000     0.958160000000     0.660190000000    -0.43233    
O39      O      0.661900000000     0.957750000000     0.719560000000    -0.43179    
O40      O      0.662020000000     0.959410000000     0.601860000000    -0.434194   
O41      O      0.328650000000     0.960090000000     0.605750000000    -0.434859   
O42      O      0.327200000000     0.958970000000     0.723360000000    -0.432656   
O43      O      0.269350000000     0.959590000000     0.663680000000    -0.434408   
O44      O      0.386850000000     0.959450000000     0.665030000000    -0.434171   
O45      O      0.387040000000     0.027850000000     0.663640000000    -0.433492   
O46      O      0.269470000000     0.028020000000     0.667280000000    -0.430859   
O47      O      0.330270000000     0.027420000000     0.723980000000    -0.433006   
O48      O      0.326730000000     0.028480000000     0.606480000000    -0.432282   
O49      O      0.330880000000     0.030360000000     0.389730000000    -0.433508   
O50      O      0.328250000000     0.031600000000     0.272150000000    -0.431145   
O51      O      0.271040000000     0.030710000000     0.332500000000    -0.432782   
O52      O      0.388570000000     0.031240000000     0.329710000000    -0.432296   
O53      O      0.388990000000     0.962830000000     0.331050000000    -0.434565   
O54      O      0.271400000000     0.962290000000     0.328810000000    -0.432602   
O55      O      0.331570000000     0.963160000000     0.271420000000    -0.434295   
O56      O      0.329180000000     0.961960000000     0.388950000000    -0.433721   
O57      O      0.664280000000     0.963030000000     0.385010000000    -0.434023   
O58      O      0.665450000000     0.965170000000     0.267480000000    -0.433153   
O59      O      0.723400000000     0.964540000000     0.326280000000    -0.43395    
O60      O      0.605810000000     0.963730000000     0.325870000000    -0.433667   
O61      O      0.605260000000     0.032130000000     0.327250000000    -0.433638   
O62      O      0.722820000000     0.033040000000     0.328320000000    -0.431231   
O63      O      0.664190000000     0.033680000000     0.268730000000    -0.429776   
O64      O      0.663570000000     0.031430000000     0.386350000000    -0.433522   
O65      O      0.957900000000     0.661290000000     0.607830000000    -0.433073   
O66      O      0.959300000000     0.659140000000     0.725400000000    -0.433868   
O67      O      0.959500000000     0.718870000000     0.668220000000    -0.432583   
O68      O      0.957850000000     0.601140000000     0.665460000000    -0.432255   
O69      O      0.026250000000     0.600330000000     0.664540000000    -0.435423   
O70      O      0.027990000000     0.717730000000     0.666690000000    -0.432725   
O71      O      0.027790000000     0.657460000000     0.724590000000    -0.431773   
O72      O      0.026290000000     0.660170000000     0.607040000000    -0.434566   
O73      O      0.027160000000     0.326450000000     0.600530000000    -0.434731   
O74      O      0.028330000000     0.325320000000     0.718020000000    -0.432193   
O75      O      0.028420000000     0.266830000000     0.658190000000    -0.431148   
O76      O      0.026880000000     0.384450000000     0.659960000000    -0.434066   
O77      O      0.958480000000     0.383600000000     0.660830000000    -0.433724   
O78      O      0.959920000000     0.266070000000     0.659560000000    -0.434516   
O79      O      0.959840000000     0.323750000000     0.718820000000    -0.433161   
O80      O      0.958760000000     0.325560000000     0.601130000000    -0.43303    
O81      O      0.958310000000     0.607230000000     0.329880000000    -0.432845   
O82      O      0.960050000000     0.724810000000     0.332050000000    -0.433731   
O83      O      0.960410000000     0.667620000000     0.272320000000    -0.432436   
O84      O      0.958100000000     0.664900000000     0.390070000000    -0.432023   
O85      O      0.026480000000     0.663780000000     0.391230000000    -0.435423   
O86      O      0.028890000000     0.665870000000     0.273820000000    -0.432453   
O87      O      0.028530000000     0.723790000000     0.334080000000    -0.431728   
O88      O      0.026690000000     0.606230000000     0.331370000000    -0.434479   
O89      O      0.958440000000     0.330920000000     0.384230000000    -0.434953   
O90      O      0.958130000000     0.329950000000     0.266680000000    -0.432796   
O91      O      0.959120000000     0.271840000000     0.326120000000    -0.433069   
O92      O      0.957590000000     0.389570000000     0.325200000000    -0.432277   
O93      O      0.025970000000     0.390270000000     0.327080000000    -0.434821   
O94      O      0.027550000000     0.272860000000     0.322870000000    -0.431937   
O95      O      0.026530000000     0.333830000000     0.266410000000    -0.432994   
O96      O      0.026830000000     0.329650000000     0.383960000000    -0.43261    
O97      O      0.993980000000     0.294950000000     0.052040000000    -0.432193   
O98      O      0.992620000000     0.292630000000     0.934470000000    -0.433591   
O99      O      0.052520000000     0.292610000000     0.992350000000    -0.430892   
O100     O      0.934980000000     0.294970000000     0.994290000000    -0.435517   
O101     O      0.936430000000     0.363360000000     0.990070000000    -0.432032   
O102     O      0.053950000000     0.361120000000     0.993880000000    -0.433968   
O103     O      0.997200000000     0.361000000000     0.933140000000    -0.433618   
O104     O      0.993980000000     0.363490000000     0.050660000000    -0.432572   
O105     O      0.998070000000     0.630870000000     0.059060000000    -0.435656   
O106     O      0.996970000000     0.626390000000     0.941530000000    -0.434354   
O107     O      0.055880000000     0.629610000000     0.000070000000    -0.432239   
O108     O      0.938330000000     0.627670000000     0.001240000000    -0.430139   
O109     O      0.937120000000     0.696110000000     0.997750000000    -0.434636   
O110     O      0.054660000000     0.698050000000     0.996610000000    -0.430396   
O111     O      0.994920000000     0.694850000000     0.938910000000    -0.435311   
O112     O      0.995980000000     0.699330000000     0.056410000000    -0.430733   
O113     O      0.995590000000     0.058220000000     0.361400000000    -0.433538   
O114     O      0.997940000000     0.940710000000     0.365400000000    -0.432192   
O115     O      0.055600000000     0.000700000000     0.363810000000    -0.428644   
O116     O      0.938040000000     0.999050000000     0.362980000000    -0.433299   
O117     O      0.938610000000     0.998110000000     0.294440000000    -0.433733   
O118     O      0.056130000000     0.995260000000     0.295500000000    -0.431823   
O119     O      0.995640000000     0.938390000000     0.296930000000    -0.435121   
O120     O      0.998970000000     0.055870000000     0.292990000000    -0.430875   
O121     O      0.937390000000     0.990470000000     0.628040000000    -0.432287   
O122     O      0.054930000000     0.990960000000     0.630810000000    -0.434137   
O123     O      0.996790000000     0.932350000000     0.631570000000    -0.435074   
O124     O      0.996400000000     0.049890000000     0.627270000000    -0.430878   
O125     O      0.993880000000     0.052420000000     0.695720000000    -0.433741   
O126     O      0.994230000000     0.934900000000     0.700020000000    -0.432238   
O127     O      0.053250000000     0.994330000000     0.699240000000    -0.431223   
O128     O      0.935690000000     0.993870000000     0.696470000000    -0.435497   
O129     O      0.697800000000     0.055030000000     0.992050000000    -0.431811   
O130     O      0.699190000000     0.937400000000     0.993840000000    -0.433715   
O131     O      0.697370000000     0.995640000000     0.934610000000    -0.435946   
O132     O      0.699700000000     0.996850000000     0.052120000000    -0.43135    
O133     O      0.631210000000     0.998900000000     0.053540000000    -0.433408   
O134     O      0.628960000000     0.991940000000     0.936070000000    -0.43145    
O135     O      0.630830000000     0.936700000000     0.998420000000    -0.433725   
O136     O      0.629270000000     0.054100000000     0.992050000000    -0.432224   
O137     O      0.295280000000     0.053980000000     0.994170000000    -0.43151    
O138     O      0.296140000000     0.936610000000     0.001340000000    -0.429517   
O139     O      0.295790000000     0.998900000000     0.056480000000    -0.431903   
O140     O      0.295650000000     0.991690000000     0.939080000000    -0.433207   
O141     O      0.363940000000     0.997290000000     0.938910000000    -0.434152   
O142     O      0.364150000000     0.994300000000     0.056420000000    -0.43265    
O143     O      0.364460000000     0.937040000000     0.996130000000    -0.433214   
O144     O      0.363620000000     0.054570000000     0.999160000000    -0.432419   


