data_structure

_audit_creation_method RASPA-1.0
_audit_creation_date 2023-5-22
_audit_author_name 'Poobodin Mano'

_cell_length_a    43.5574
_cell_length_b    43.5575
_cell_length_c    43.3701
_cell_angle_alpha 90
_cell_angle_beta  89.997
_cell_angle_gamma 90
_cell_volume      82284

_symmetry_cell_setting          triclinic
_symmetry_space_group_name_Hall 'P 1'
_symmetry_space_group_name_H-M  'P 1'
_symmetry_Int_Tables_number     1

_symmetry_equiv_pos_as_xyz 'x,y,z'

loop_
_atom_site_label
_atom_site_type_symbol
_atom_site_fract_x
_atom_site_fract_y
_atom_site_fract_z
_atom_site_charge
C1       C      0.493960000000     0.993960000000     0.304740000000     0.380264   
C2       C      0.493960000000     0.493960000000     0.187440000000     0.379442   
C3       C      0.994100000000     0.052470000000     0.246090000000     0.371683   
C4       C      0.993830000000     0.435450000000     0.246090000000     0.372377   
C5       C      0.493960000000     0.243970000000     0.304730000000     0.379346   
C6       C      0.493960000000     0.243960000000     0.187430000000     0.379451   
C7       C      0.994090000000     0.302470000000     0.246080000000     0.372544   
C8       C      0.993840000000     0.185450000000     0.246080000000     0.372209   
C9       C      0.243960000000     0.993960000000     0.187460000000     0.380567   
C10      C      0.243970000000     0.993970000000     0.304750000000     0.380438   
C11      C      0.245030000000     0.052470000000     0.246110000000     0.376817   
C12      C      0.242890000000     0.435460000000     0.246110000000     0.378201   
C13      C      0.243970000000     0.243960000000     0.304740000000     0.379469   
C14      C      0.243960000000     0.243970000000     0.187450000000     0.37962    
C15      C      0.245030000000     0.185460000000     0.246100000000     0.378029   
C16      C      0.242900000000     0.302470000000     0.246100000000     0.377908   
C17      C      0.493970000000     0.993960000000     0.437440000000     0.373487   
C18      C      0.493960000000     0.993960000000     0.054740000000     0.372483   
C19      C      0.435450000000     0.493830000000     0.496090000000     0.378032   
C20      C      0.052470000000     0.494100000000     0.496090000000     0.377213   
C21      C      0.493970000000     0.243970000000     0.437440000000     0.379469   
C22      C      0.493960000000     0.243960000000     0.054730000000     0.378377   
C23      C      0.435460000000     0.242900000000     0.496080000000     0.378173   
C24      C      0.052470000000     0.245030000000     0.496080000000     0.376804   
C25      C      0.243960000000     0.993960000000     0.054750000000     0.372546   
C26      C      0.243970000000     0.993960000000     0.437460000000     0.373505   
C27      C      0.302470000000     0.494090000000     0.996100000000     0.377428   
C28      C      0.185450000000     0.493840000000     0.996110000000     0.377121   
C29      C      0.243970000000     0.243960000000     0.437450000000     0.379455   
C30      C      0.243960000000     0.243970000000     0.054740000000     0.378457   
C31      C      0.185460000000     0.245030000000     0.496100000000     0.378005   
C32      C      0.302470000000     0.242900000000     0.496090000000     0.378114   
C33      C      0.352890000000     0.214760000000     0.996090000000    -0.00293319 
C34      C      0.336490000000     0.242580000000     0.496090000000    -0.0894483  
C35      C      0.352950000000     0.270340000000     0.496090000000    -0.00306684 
C36      C      0.384980000000     0.270340000000     0.496090000000    -0.00308551 
C37      C      0.401440000000     0.242580000000     0.496090000000    -0.0894634  
C38      C      0.385030000000     0.214760000000     0.996090000000    -0.00293121 
C39      C      0.102890000000     0.273170000000     0.496090000000    -0.00278429 
C40      C      0.086490000000     0.245350000000     0.496090000000    -0.0881532  
C41      C      0.102950000000     0.217590000000     0.996090000000    -0.00373628 
C42      C      0.134980000000     0.217590000000     0.996090000000    -0.00307439 
C43      C      0.151440000000     0.245350000000     0.496090000000    -0.0894429  
C44      C      0.135030000000     0.273170000000     0.496090000000    -0.00217231 
C45      C      0.384950000000     0.466120000000     0.996100000000    -0.00325043 
C46      C      0.401430000000     0.493850000000     0.496100000000    -0.0895017  
C47      C      0.385060000000     0.021700000000     0.496100000000     0.00239666 
C48      C      0.352970000000     0.021800000000     0.496100000000     0.00241534 
C49      C      0.336500000000     0.494060000000     0.496100000000    -0.0893769  
C50      C      0.352870000000     0.466220000000     0.996100000000    -0.00333309 
C51      C      0.102970000000     0.021810000000     0.496100000000     0.00212874 
C52      C      0.086490000000     0.494070000000     0.496090000000    -0.0883085  
C53      C      0.102870000000     0.466230000000     0.996090000000    -0.00340623 
C54      C      0.134950000000     0.466130000000     0.996100000000    -0.00273881 
C55      C      0.151430000000     0.493860000000     0.496100000000    -0.0894769  
C56      C      0.135060000000     0.021710000000     0.496100000000     0.00257682 
C57      C      0.224090000000     0.224490000000     0.137210000000     1.71544e-05
C58      C      0.243960000000     0.243970000000     0.153530000000    -0.0896445  
C59      C      0.263840000000     0.263440000000     0.137210000000    -8.09569e-05
C60      C      0.263440000000     0.263840000000     0.104980000000    -0.000884854
C61      C      0.243960000000     0.243970000000     0.088660000000    -0.087975   
C62      C      0.224480000000     0.224090000000     0.104980000000    -0.000868205
C63      C      0.224490000000     0.224090000000     0.387210000000    -0.000630689
C64      C      0.243970000000     0.243960000000     0.403530000000    -0.0896242  
C65      C      0.263440000000     0.263840000000     0.387210000000    -0.000694053
C66      C      0.263840000000     0.263440000000     0.354980000000    -0.000701548
C67      C      0.243970000000     0.243960000000     0.338660000000    -0.0896118  
C68      C      0.224090000000     0.224490000000     0.354980000000    -0.00065336 
C69      C      0.224220000000     0.013580000000     0.137220000000     0.00649787 
C70      C      0.243960000000     0.993960000000     0.153540000000    -0.0965243  
C71      C      0.263700000000     0.474350000000     0.137220000000    -0.000117597
C72      C      0.263300000000     0.473950000000     0.104990000000    -0.000894899
C73      C      0.243960000000     0.993960000000     0.088670000000    -0.0922222  
C74      C      0.224620000000     0.013970000000     0.104990000000     0.00375982 
C75      C      0.224220000000     0.013570000000     0.354990000000     0.00590151 
C76      C      0.243970000000     0.993970000000     0.338670000000    -0.0965255  
C77      C      0.263720000000     0.474360000000     0.354990000000    -0.000737949
C78      C      0.263310000000     0.473960000000     0.387220000000    -0.000723907
C79      C      0.243970000000     0.993970000000     0.403540000000    -0.0938444  
C80      C      0.224620000000     0.013960000000     0.387220000000     0.00397473 
C81      C      0.270340000000     0.384980000000     0.246100000000    -0.00298893 
C82      C      0.242580000000     0.401440000000     0.246110000000    -0.0894154  
C83      C      0.214760000000     0.385030000000     0.246110000000    -0.00242808 
C84      C      0.214760000000     0.352890000000     0.246100000000    -0.00251858 
C85      C      0.242580000000     0.336490000000     0.246100000000    -0.0892629  
C86      C      0.270340000000     0.352950000000     0.246100000000    -0.00306768 
C87      C      0.273170000000     0.102890000000     0.246100000000    -0.0027731  
C88      C      0.245350000000     0.086490000000     0.246100000000    -0.0880574  
C89      C      0.217590000000     0.102950000000     0.246100000000    -0.00327143 
C90      C      0.217590000000     0.134980000000     0.246100000000    -0.00258619 
C91      C      0.245350000000     0.151440000000     0.246100000000    -0.0894135  
C92      C      0.273160000000     0.135030000000     0.246100000000    -0.00201493 
C93      C      0.473950000000     0.263300000000     0.137200000000    -8.74927e-05
C94      C      0.493960000000     0.243960000000     0.153520000000    -0.0897401  
C95      C      0.013970000000     0.224630000000     0.137200000000     0.00462895 
C96      C      0.013580000000     0.224220000000     0.104970000000     0.0056661  
C97      C      0.493960000000     0.243960000000     0.088650000000    -0.0880031  
C98      C      0.474350000000     0.263700000000     0.104970000000    -0.000900085
C99      C      0.013970000000     0.224620000000     0.354970000000     0.00394411 
C100     C      0.493960000000     0.243970000000     0.338650000000    -0.0896069  
C101     C      0.473960000000     0.263310000000     0.354970000000    -0.00072539 
C102     C      0.474360000000     0.263710000000     0.387200000000    -0.000738249
C103     C      0.493970000000     0.243970000000     0.403520000000    -0.0896175  
C104     C      0.013580000000     0.224220000000     0.387200000000     0.00586588 
C105     C      0.013850000000     0.474500000000     0.137210000000     0.004469   
C106     C      0.493960000000     0.993960000000     0.153530000000    -0.0966245  
C107     C      0.474080000000     0.013430000000     0.137210000000     0.00640933 
C108     C      0.474480000000     0.013830000000     0.104980000000     0.00372678 
C109     C      0.493960000000     0.993960000000     0.088650000000    -0.0924147  
C110     C      0.013450000000     0.474100000000     0.104970000000     0.00565552 
C111     C      0.013840000000     0.474490000000     0.354970000000     0.00380251 
C112     C      0.493960000000     0.993960000000     0.338660000000    -0.0965366  
C113     C      0.474090000000     0.013440000000     0.354980000000     0.00577601 
C114     C      0.474490000000     0.013840000000     0.387210000000     0.00392197 
C115     C      0.493970000000     0.993960000000     0.403530000000    -0.0940388  
C116     C      0.013440000000     0.474090000000     0.387210000000     0.00592917 
C117     C      0.466120000000     0.384950000000     0.246090000000    -0.00273154 
C118     C      0.993860000000     0.401430000000     0.246090000000    -0.0941727  
C119     C      0.021700000000     0.385060000000     0.246090000000     0.00244181 
C120     C      0.021800000000     0.352980000000     0.246080000000     0.00250973 
C121     C      0.994070000000     0.336500000000     0.246080000000    -0.0939685  
C122     C      0.466220000000     0.352870000000     0.246090000000    -0.00294546 
C123     C      0.466230000000     0.102870000000     0.246090000000    -0.00296337 
C124     C      0.994070000000     0.086490000000     0.246090000000    -0.0929169  
C125     C      0.021810000000     0.102970000000     0.246080000000     0.00224495 
C126     C      0.021710000000     0.135060000000     0.246080000000     0.00260248 
C127     C      0.993860000000     0.151430000000     0.246080000000    -0.0940802  
C128     C      0.466130000000     0.134950000000     0.246090000000    -0.00218486 
C129     C      0.493970000000     0.993960000000     0.804740000000     0.380388   
C130     C      0.493960000000     0.493960000000     0.687440000000     0.379324   
C131     C      0.994100000000     0.052470000000     0.746090000000     0.37166    
C132     C      0.993830000000     0.435450000000     0.746090000000     0.372355   
C133     C      0.493970000000     0.243970000000     0.804730000000     0.379373   
C134     C      0.493960000000     0.243960000000     0.687430000000     0.379328   
C135     C      0.994090000000     0.302470000000     0.746080000000     0.372519   
C136     C      0.993840000000     0.185450000000     0.746080000000     0.372186   
C137     C      0.243960000000     0.993960000000     0.687460000000     0.380154   
C138     C      0.243960000000     0.993970000000     0.804750000000     0.380461   
C139     C      0.245030000000     0.052470000000     0.746100000000     0.376808   
C140     C      0.242900000000     0.435460000000     0.746110000000     0.3779     
C141     C      0.243960000000     0.243960000000     0.804740000000     0.379502   
C142     C      0.243960000000     0.243970000000     0.687450000000     0.379492   
C143     C      0.245030000000     0.185460000000     0.746090000000     0.378004   
C144     C      0.242900000000     0.302470000000     0.746100000000     0.377906   
C145     C      0.493970000000     0.993960000000     0.937440000000     0.373058   
C146     C      0.493960000000     0.993960000000     0.554740000000     0.37348    
C147     C      0.435450000000     0.493830000000     0.996090000000     0.377254   
C148     C      0.052470000000     0.494100000000     0.996090000000     0.376445   
C149     C      0.493970000000     0.243970000000     0.937430000000     0.378923   
C150     C      0.493960000000     0.243960000000     0.554730000000     0.37939    
C151     C      0.435460000000     0.242900000000     0.996090000000     0.377412   
C152     C      0.052470000000     0.245030000000     0.996080000000     0.376036   
C153     C      0.243960000000     0.993960000000     0.554750000000     0.373511   
C154     C      0.243970000000     0.993960000000     0.937460000000     0.37305    
C155     C      0.302470000000     0.494090000000     0.496100000000     0.378106   
C156     C      0.185450000000     0.493840000000     0.496100000000     0.377889   
C157     C      0.243970000000     0.243960000000     0.937450000000     0.379051   
C158     C      0.243960000000     0.243970000000     0.554740000000     0.379526   
C159     C      0.185460000000     0.245030000000     0.996090000000     0.377231   
C160     C      0.302470000000     0.242900000000     0.996090000000     0.377411   
C161     C      0.352890000000     0.214760000000     0.496090000000    -0.00253883 
C162     C      0.336490000000     0.242580000000     0.996090000000    -0.0898981  
C163     C      0.352950000000     0.270340000000     0.996090000000    -0.00348615 
C164     C      0.384980000000     0.270340000000     0.996090000000    -0.00349925 
C165     C      0.401440000000     0.242580000000     0.996090000000    -0.0899018  
C166     C      0.385030000000     0.214760000000     0.496090000000    -0.00251014 
C167     C      0.102890000000     0.273170000000     0.996090000000    -0.00319293 
C168     C      0.086490000000     0.245350000000     0.996090000000    -0.0885863  
C169     C      0.102950000000     0.217590000000     0.496090000000    -0.00331029 
C170     C      0.134980000000     0.217590000000     0.496090000000    -0.00266596 
C171     C      0.151440000000     0.245350000000     0.996090000000    -0.0898861  
C172     C      0.135030000000     0.273170000000     0.996090000000    -0.00257598 
C173     C      0.384950000000     0.466120000000     0.496100000000    -0.00281167 
C174     C      0.401430000000     0.493850000000     0.996090000000    -0.0899248  
C175     C      0.385060000000     0.021700000000     0.996100000000     0.00194539 
C176     C      0.352970000000     0.021800000000     0.996100000000     0.00205247 
C177     C      0.336490000000     0.494060000000     0.996100000000    -0.0899478  
C178     C      0.352870000000     0.466220000000     0.496100000000    -0.0029756  
C179     C      0.102970000000     0.021810000000     0.996100000000     0.00171145 
C180     C      0.086490000000     0.494070000000     0.996090000000    -0.0887524  
C181     C      0.102870000000     0.466230000000     0.496100000000    -0.00299548 
C182     C      0.134950000000     0.466130000000     0.496100000000    -0.00233317 
C183     C      0.151430000000     0.493860000000     0.996100000000    -0.0899205  
C184     C      0.135060000000     0.021710000000     0.996100000000     0.00215383 
C185     C      0.224090000000     0.224490000000     0.637210000000    -0.000599162
C186     C      0.243960000000     0.243970000000     0.653530000000    -0.0895948  
C187     C      0.263840000000     0.263440000000     0.637210000000    -0.000696448
C188     C      0.263440000000     0.263840000000     0.604980000000    -0.000673085
C189     C      0.243960000000     0.243970000000     0.588660000000    -0.0895819  
C190     C      0.224480000000     0.224090000000     0.604980000000    -0.000683801
C191     C      0.224490000000     0.224090000000     0.887210000000    -0.000685039
C192     C      0.243970000000     0.243960000000     0.903530000000    -0.0894511  
C193     C      0.263440000000     0.263840000000     0.887210000000    -0.000749283
C194     C      0.263840000000     0.263440000000     0.854980000000    -0.000640096
C195     C      0.243970000000     0.243960000000     0.838660000000    -0.0896114  
C196     C      0.224090000000     0.224490000000     0.854980000000    -0.00060288 
C197     C      0.224220000000     0.013580000000     0.637220000000     0.00586666 
C198     C      0.243960000000     0.993960000000     0.653540000000    -0.0963844  
C199     C      0.263700000000     0.474350000000     0.637220000000    -0.000747255
C200     C      0.263300000000     0.473950000000     0.604990000000    -0.000737288
C201     C      0.243960000000     0.993960000000     0.588670000000    -0.0938076  
C202     C      0.224620000000     0.013970000000     0.604990000000     0.00396034 
C203     C      0.224220000000     0.013570000000     0.854990000000     0.0059543  
C204     C      0.243970000000     0.993970000000     0.838670000000    -0.0965232  
C205     C      0.263720000000     0.474360000000     0.854990000000    -0.000672566
C206     C      0.263310000000     0.473960000000     0.887220000000    -0.000792857
C207     C      0.243970000000     0.993970000000     0.903540000000    -0.0936534  
C208     C      0.224620000000     0.013960000000     0.887220000000     0.00390915 
C209     C      0.270340000000     0.384980000000     0.746100000000    -0.00310255 
C210     C      0.242580000000     0.401440000000     0.746100000000    -0.0893448  
C211     C      0.214760000000     0.385030000000     0.746100000000    -0.00252718 
C212     C      0.214760000000     0.352890000000     0.746100000000    -0.00254154 
C213     C      0.242580000000     0.336490000000     0.746100000000    -0.089341   
C214     C      0.270340000000     0.352950000000     0.746100000000    -0.00307642 
C215     C      0.273170000000     0.102890000000     0.746100000000    -0.00276956 
C216     C      0.245350000000     0.086490000000     0.746100000000    -0.0881325  
C217     C      0.217590000000     0.102950000000     0.746100000000    -0.00329582 
C218     C      0.217590000000     0.134980000000     0.746100000000    -0.00265381 
C219     C      0.245350000000     0.151440000000     0.746100000000    -0.0894188  
C220     C      0.273170000000     0.135030000000     0.746100000000    -0.00215913 
C221     C      0.473950000000     0.263300000000     0.637200000000    -0.000661182
C222     C      0.493960000000     0.243960000000     0.653520000000    -0.0897192  
C223     C      0.013970000000     0.224630000000     0.637200000000     0.00406187 
C224     C      0.013580000000     0.224220000000     0.604970000000     0.00586031 
C225     C      0.493960000000     0.243960000000     0.588650000000    -0.0895766  
C226     C      0.474350000000     0.263700000000     0.604970000000    -0.000739828
C227     C      0.013970000000     0.224620000000     0.854960000000     0.00399636 
C228     C      0.493970000000     0.243970000000     0.838650000000    -0.0896035  
C229     C      0.473960000000     0.263310000000     0.854970000000    -0.000669269
C230     C      0.474350000000     0.263710000000     0.887200000000    -0.0008143  
C231     C      0.493970000000     0.243970000000     0.903520000000    -0.0895019  
C232     C      0.013580000000     0.224220000000     0.887200000000     0.0058561  
C233     C      0.013850000000     0.474500000000     0.637210000000     0.0038797  
C234     C      0.493960000000     0.993960000000     0.653530000000    -0.0966048  
C235     C      0.474080000000     0.013430000000     0.637210000000     0.00583398 
C236     C      0.474480000000     0.013830000000     0.604970000000     0.00390806 
C237     C      0.493960000000     0.993960000000     0.588650000000    -0.0939992  
C238     C      0.013450000000     0.474100000000     0.604970000000     0.0058962  
C239     C      0.013840000000     0.474490000000     0.854970000000     0.00393818 
C240     C      0.493970000000     0.993960000000     0.838650000000    -0.0966612  
C241     C      0.474090000000     0.013440000000     0.854980000000     0.0058627  
C242     C      0.474490000000     0.013840000000     0.887210000000     0.00384607 
C243     C      0.493960000000     0.993960000000     0.903530000000    -0.0938275  
C244     C      0.013440000000     0.474090000000     0.887210000000     0.00584038 
C245     C      0.466120000000     0.384950000000     0.746090000000    -0.00282509 
C246     C      0.993860000000     0.401430000000     0.746090000000    -0.0942409  
C247     C      0.021700000000     0.385060000000     0.746090000000     0.00242471 
C248     C      0.021800000000     0.352980000000     0.746080000000     0.00243667 
C249     C      0.994060000000     0.336500000000     0.746080000000    -0.0940299  
C250     C      0.466220000000     0.352870000000     0.746090000000    -0.00294547 
C251     C      0.466230000000     0.102870000000     0.746090000000    -0.00295384 
C252     C      0.994070000000     0.086490000000     0.746090000000    -0.092982   
C253     C      0.021810000000     0.102970000000     0.746090000000     0.00221162 
C254     C      0.021710000000     0.135060000000     0.746080000000     0.00257179 
C255     C      0.993860000000     0.151430000000     0.746090000000    -0.0941471  
C256     C      0.466130000000     0.134950000000     0.746090000000    -0.00234161 
C257     C      0.493960000000     0.493960000000     0.304740000000     0.379274   
C258     C      0.493960000000     0.993960000000     0.187440000000     0.380418   
C259     C      0.994100000000     0.552470000000     0.246090000000     0.372631   
C260     C      0.993830000000     0.935450000000     0.246090000000     0.371979   
C261     C      0.493960000000     0.743960000000     0.304730000000     0.379347   
C262     C      0.493960000000     0.743960000000     0.187430000000     0.379437   
C263     C      0.994090000000     0.802470000000     0.246080000000     0.372563   
C264     C      0.993840000000     0.685450000000     0.246080000000     0.372122   
C265     C      0.243960000000     0.493960000000     0.187460000000     0.379583   
C266     C      0.243970000000     0.493960000000     0.304750000000     0.379443   
C267     C      0.245030000000     0.552470000000     0.246110000000     0.377841   
C268     C      0.242890000000     0.935460000000     0.246110000000     0.377803   
C269     C      0.243970000000     0.743960000000     0.304740000000     0.379469   
C270     C      0.243960000000     0.743960000000     0.187450000000     0.379633   
C271     C      0.245030000000     0.685460000000     0.246100000000     0.377953   
C272     C      0.242900000000     0.802470000000     0.246100000000     0.377861   
C273     C      0.493970000000     0.493960000000     0.437440000000     0.379345   
C274     C      0.493960000000     0.493960000000     0.054740000000     0.378314   
C275     C      0.435450000000     0.993830000000     0.496090000000     0.3723     
C276     C      0.052470000000     0.994100000000     0.496090000000     0.371324   
C277     C      0.493970000000     0.743960000000     0.437440000000     0.379493   
C278     C      0.493960000000     0.743960000000     0.054730000000     0.378414   
C279     C      0.435460000000     0.742890000000     0.496080000000     0.378192   
C280     C      0.052470000000     0.745030000000     0.496080000000     0.376823   
C281     C      0.243960000000     0.493960000000     0.054750000000     0.378373   
C282     C      0.243970000000     0.493960000000     0.437460000000     0.379352   
C283     C      0.302470000000     0.994090000000     0.996100000000     0.371819   
C284     C      0.185450000000     0.993840000000     0.996110000000     0.371405   
C285     C      0.243970000000     0.743960000000     0.437450000000     0.379476   
C286     C      0.243960000000     0.743960000000     0.054740000000     0.37847    
C287     C      0.185460000000     0.745030000000     0.496100000000     0.37802    
C288     C      0.302470000000     0.742900000000     0.496090000000     0.377839   
C289     C      0.352890000000     0.714760000000     0.996090000000    -0.00300336 
C290     C      0.336490000000     0.742580000000     0.496090000000    -0.0893351  
C291     C      0.352950000000     0.770340000000     0.496090000000    -0.00311892 
C292     C      0.384980000000     0.770340000000     0.496090000000    -0.00303479 
C293     C      0.401440000000     0.742580000000     0.496090000000    -0.0894937  
C294     C      0.385030000000     0.714760000000     0.996090000000    -0.00292857 
C295     C      0.102890000000     0.773170000000     0.496090000000    -0.00277063 
C296     C      0.086490000000     0.745350000000     0.496090000000    -0.0881571  
C297     C      0.102950000000     0.717590000000     0.996090000000    -0.00374637 
C298     C      0.134980000000     0.717590000000     0.996090000000    -0.00308717 
C299     C      0.151440000000     0.745350000000     0.496090000000    -0.0894438  
C300     C      0.135030000000     0.773170000000     0.496090000000    -0.00215993 
C301     C      0.384950000000     0.966120000000     0.996100000000    -0.00312654 
C302     C      0.401430000000     0.993860000000     0.496100000000    -0.0942281  
C303     C      0.385060000000     0.521700000000     0.496100000000    -0.00278402 
C304     C      0.352970000000     0.521800000000     0.496100000000    -0.00276073 
C305     C      0.336500000000     0.994060000000     0.496100000000    -0.0940319  
C306     C      0.352870000000     0.966220000000     0.996100000000    -0.00315742 
C307     C      0.102970000000     0.521810000000     0.496100000000    -0.0030458  
C308     C      0.086490000000     0.994070000000     0.496090000000    -0.092856   
C309     C      0.102870000000     0.966230000000     0.996090000000    -0.00328007 
C310     C      0.134950000000     0.966130000000     0.996100000000    -0.00257542 
C311     C      0.151430000000     0.993860000000     0.496100000000    -0.0941664  
C312     C      0.135060000000     0.521700000000     0.496100000000    -0.00249515 
C313     C      0.224090000000     0.724490000000     0.137210000000     9.23918e-06
C314     C      0.243960000000     0.743960000000     0.153530000000    -0.0896638  
C315     C      0.263840000000     0.763440000000     0.137210000000    -8.67915e-05
C316     C      0.263440000000     0.763840000000     0.104980000000    -0.000896736
C317     C      0.243960000000     0.743960000000     0.088660000000    -0.087985   
C318     C      0.224480000000     0.724090000000     0.104980000000    -0.00087966 
C319     C      0.224490000000     0.724090000000     0.387210000000    -0.000612892
C320     C      0.243970000000     0.743960000000     0.403530000000    -0.0896541  
C321     C      0.263440000000     0.763840000000     0.387210000000    -0.000678499
C322     C      0.263840000000     0.763440000000     0.354980000000    -0.00071862 
C323     C      0.243970000000     0.743960000000     0.338660000000    -0.0895935  
C324     C      0.224090000000     0.724480000000     0.354980000000    -0.000740176
C325     C      0.224220000000     0.513580000000     0.137220000000    -9.32152e-05
C326     C      0.243960000000     0.493960000000     0.153540000000    -0.0896421  
C327     C      0.263700000000     0.974350000000     0.137220000000     0.00110636 
C328     C      0.263300000000     0.973950000000     0.104990000000    -0.00141207 
C329     C      0.243960000000     0.493960000000     0.088670000000    -0.0879959  
C330     C      0.224620000000     0.513970000000     0.104990000000    -0.000867882
C331     C      0.224220000000     0.513570000000     0.354990000000    -0.000711955
C332     C      0.243970000000     0.493960000000     0.338670000000    -0.0896282  
C333     C      0.263720000000     0.974360000000     0.354990000000     0.00048159 
C334     C      0.263310000000     0.973960000000     0.387220000000    -0.00125859 
C335     C      0.243970000000     0.493960000000     0.403540000000    -0.0896112  
C336     C      0.224620000000     0.513960000000     0.387220000000    -0.00068236 
C337     C      0.270340000000     0.884980000000     0.246100000000    -0.00303157 
C338     C      0.242580000000     0.901440000000     0.246110000000    -0.0893412  
C339     C      0.214760000000     0.885030000000     0.246110000000    -0.0024851  
C340     C      0.214760000000     0.852890000000     0.246100000000    -0.00253001 
C341     C      0.242580000000     0.836490000000     0.246100000000    -0.0892505  
C342     C      0.270340000000     0.852950000000     0.246100000000    -0.00306943 
C343     C      0.273170000000     0.602890000000     0.246100000000    -0.00256912 
C344     C      0.245350000000     0.586490000000     0.246100000000    -0.0892348  
C345     C      0.217590000000     0.602950000000     0.246100000000    -0.0030399  
C346     C      0.217590000000     0.634980000000     0.246100000000    -0.0029635  
C347     C      0.245350000000     0.651440000000     0.246100000000    -0.0893239  
C348     C      0.273160000000     0.635030000000     0.246100000000    -0.00240405 
C349     C      0.473950000000     0.763300000000     0.137200000000    -0.000119884
C350     C      0.493960000000     0.743960000000     0.153520000000    -0.0897002  
C351     C      0.013970000000     0.724620000000     0.137200000000     0.0045032  
C352     C      0.013580000000     0.724230000000     0.104970000000     0.00576051 
C353     C      0.493960000000     0.743960000000     0.088650000000    -0.0880679  
C354     C      0.474350000000     0.763700000000     0.104970000000    -0.000864261
C355     C      0.013970000000     0.724620000000     0.354970000000     0.00393298 
C356     C      0.493960000000     0.743960000000     0.338650000000    -0.0896147  
C357     C      0.473960000000     0.763310000000     0.354970000000    -0.000747642
C358     C      0.474360000000     0.763710000000     0.387200000000    -0.000717728
C359     C      0.493970000000     0.743960000000     0.403520000000    -0.089643   
C360     C      0.013580000000     0.724220000000     0.387200000000     0.00587128 
C361     C      0.013850000000     0.974490000000     0.137210000000     0.00561089 
C362     C      0.493960000000     0.493960000000     0.153530000000    -0.0897676  
C363     C      0.474080000000     0.513430000000     0.137210000000    -0.000180259
C364     C      0.474480000000     0.513830000000     0.104980000000    -0.00091432 
C365     C      0.493960000000     0.493960000000     0.088650000000    -0.0881732  
C366     C      0.013450000000     0.974100000000     0.104970000000     0.00516215 
C367     C      0.013840000000     0.974490000000     0.354970000000     0.00502111 
C368     C      0.493960000000     0.493960000000     0.338660000000    -0.0896323  
C369     C      0.474090000000     0.513440000000     0.354980000000    -0.000841607
C370     C      0.474490000000     0.513840000000     0.387210000000    -0.000714584
C371     C      0.493970000000     0.493960000000     0.403530000000    -0.0898118  
C372     C      0.013440000000     0.974090000000     0.387210000000     0.0053938  
C373     C      0.466120000000     0.884950000000     0.246090000000    -0.0027938  
C374     C      0.993860000000     0.901430000000     0.246090000000    -0.094089   
C375     C      0.021700000000     0.885060000000     0.246090000000     0.00238825 
C376     C      0.021800000000     0.852970000000     0.246080000000     0.00251411 
C377     C      0.994070000000     0.836500000000     0.246080000000    -0.0939661  
C378     C      0.466220000000     0.852870000000     0.246090000000    -0.00294683 
C379     C      0.466230000000     0.602870000000     0.246090000000    -0.00272849 
C380     C      0.994070000000     0.586490000000     0.246090000000    -0.0940943  
C381     C      0.021810000000     0.602970000000     0.246080000000     0.00244684 
C382     C      0.021710000000     0.635060000000     0.246080000000     0.00222677 
C383     C      0.993860000000     0.651430000000     0.246080000000    -0.0939963  
C384     C      0.466130000000     0.634950000000     0.246090000000    -0.00256557 
C385     C      0.493970000000     0.493960000000     0.804740000000     0.379399   
C386     C      0.493960000000     0.993960000000     0.687440000000     0.380303   
C387     C      0.994100000000     0.552470000000     0.746090000000     0.372609   
C388     C      0.993830000000     0.935450000000     0.746090000000     0.371956   
C389     C      0.493970000000     0.743960000000     0.804730000000     0.379375   
C390     C      0.493960000000     0.743960000000     0.687430000000     0.379313   
C391     C      0.994090000000     0.802470000000     0.746080000000     0.372537   
C392     C      0.993840000000     0.685450000000     0.746080000000     0.372099   
C393     C      0.243960000000     0.493960000000     0.687460000000     0.379167   
C394     C      0.243960000000     0.493960000000     0.804750000000     0.379466   
C395     C      0.245030000000     0.552470000000     0.746100000000     0.377833   
C396     C      0.242900000000     0.935460000000     0.746110000000     0.377502   
C397     C      0.243960000000     0.743960000000     0.804740000000     0.379502   
C398     C      0.243960000000     0.743960000000     0.687450000000     0.379505   
C399     C      0.245030000000     0.685460000000     0.746090000000     0.377928   
C400     C      0.242900000000     0.802470000000     0.746100000000     0.377859   
C401     C      0.493970000000     0.493960000000     0.937440000000     0.378902   
C402     C      0.493960000000     0.493960000000     0.554740000000     0.379331   
C403     C      0.435450000000     0.993830000000     0.996090000000     0.371538   
C404     C      0.052470000000     0.994100000000     0.996090000000     0.370572   
C405     C      0.493970000000     0.743960000000     0.937430000000     0.378947   
C406     C      0.493960000000     0.743960000000     0.554730000000     0.379428   
C407     C      0.435460000000     0.742890000000     0.996090000000     0.377431   
C408     C      0.052470000000     0.745030000000     0.996080000000     0.376056   
C409     C      0.243960000000     0.493960000000     0.554750000000     0.379359   
C410     C      0.243970000000     0.493960000000     0.937460000000     0.378884   
C411     C      0.302470000000     0.994090000000     0.496100000000     0.372481   
C412     C      0.185450000000     0.993840000000     0.496100000000     0.372157   
C413     C      0.243970000000     0.743960000000     0.937450000000     0.379071   
C414     C      0.243960000000     0.743960000000     0.554740000000     0.37954    
C415     C      0.185460000000     0.745030000000     0.996090000000     0.377246   
C416     C      0.302470000000     0.742900000000     0.996090000000     0.377136   
C417     C      0.352890000000     0.714760000000     0.496090000000    -0.00260905 
C418     C      0.336490000000     0.742580000000     0.996090000000    -0.0897846  
C419     C      0.352950000000     0.770340000000     0.996090000000    -0.0035379  
C420     C      0.384980000000     0.770340000000     0.996090000000    -0.00344821 
C421     C      0.401440000000     0.742580000000     0.996090000000    -0.0899319  
C422     C      0.385030000000     0.714760000000     0.496090000000    -0.00250765 
C423     C      0.102890000000     0.773170000000     0.996090000000    -0.00317894 
C424     C      0.086490000000     0.745350000000     0.996090000000    -0.0885901  
C425     C      0.102950000000     0.717590000000     0.496090000000    -0.00332047 
C426     C      0.134980000000     0.717590000000     0.496090000000    -0.00267878 
C427     C      0.151440000000     0.745350000000     0.996090000000    -0.0898867  
C428     C      0.135030000000     0.773170000000     0.996090000000    -0.00256327 
C429     C      0.384950000000     0.966120000000     0.496100000000    -0.00269017 
C430     C      0.401430000000     0.993860000000     0.996090000000    -0.0946401  
C431     C      0.385060000000     0.521700000000     0.996100000000    -0.00322764 
C432     C      0.352970000000     0.521800000000     0.996100000000    -0.00310981 
C433     C      0.336490000000     0.994060000000     0.996100000000    -0.0945854  
C434     C      0.352870000000     0.966220000000     0.496100000000    -0.00279678 
C435     C      0.102970000000     0.521810000000     0.996100000000    -0.00345337 
C436     C      0.086490000000     0.994070000000     0.996090000000    -0.0932875  
C437     C      0.102870000000     0.966230000000     0.496100000000    -0.00287004 
C438     C      0.134950000000     0.966130000000     0.496100000000    -0.00217055 
C439     C      0.151430000000     0.993860000000     0.996100000000    -0.0945976  
C440     C      0.135060000000     0.521700000000     0.996100000000    -0.0029085  
C441     C      0.224090000000     0.724490000000     0.637210000000    -0.000607749
C442     C      0.243960000000     0.743960000000     0.653530000000    -0.0896142  
C443     C      0.263840000000     0.763440000000     0.637210000000    -0.000702412
C444     C      0.263440000000     0.763840000000     0.604980000000    -0.0006852  
C445     C      0.243960000000     0.743960000000     0.588660000000    -0.089593   
C446     C      0.224480000000     0.724090000000     0.604980000000    -0.000694845
C447     C      0.224490000000     0.724090000000     0.887210000000    -0.000667303
C448     C      0.243970000000     0.743960000000     0.903530000000    -0.0894809  
C449     C      0.263440000000     0.763840000000     0.887210000000    -0.000733786
C450     C      0.263840000000     0.763440000000     0.854980000000    -0.000657157
C451     C      0.243970000000     0.743960000000     0.838660000000    -0.0895932  
C452     C      0.224090000000     0.724480000000     0.854980000000    -0.000689662
C453     C      0.224220000000     0.513580000000     0.637220000000    -0.000736433
C454     C      0.243960000000     0.493960000000     0.653540000000    -0.0894913  
C455     C      0.263700000000     0.974350000000     0.637220000000     0.000479334
C456     C      0.263300000000     0.973950000000     0.604990000000    -0.00125533 
C457     C      0.243960000000     0.493960000000     0.588670000000    -0.0895757  
C458     C      0.224620000000     0.513970000000     0.604990000000    -0.000680878
C459     C      0.224220000000     0.513570000000     0.854990000000    -0.000658235
C460     C      0.243970000000     0.493960000000     0.838670000000    -0.0896297  
C461     C      0.263720000000     0.974360000000     0.854990000000     0.000546965
C462     C      0.263310000000     0.973960000000     0.887220000000    -0.00132696 
C463     C      0.243970000000     0.493960000000     0.903540000000    -0.0894239  
C464     C      0.224620000000     0.513960000000     0.887220000000    -0.000743131
C465     C      0.270340000000     0.884980000000     0.746100000000    -0.00314509 
C466     C      0.242580000000     0.901440000000     0.746100000000    -0.0892708  
C467     C      0.214760000000     0.885030000000     0.746100000000    -0.00258413 
C468     C      0.214760000000     0.852890000000     0.746100000000    -0.002553   
C469     C      0.242580000000     0.836490000000     0.746100000000    -0.0893286  
C470     C      0.270340000000     0.852950000000     0.746100000000    -0.00307819 
C471     C      0.273170000000     0.602890000000     0.746100000000    -0.00256548 
C472     C      0.245350000000     0.586490000000     0.746100000000    -0.0893109  
C473     C      0.217590000000     0.602950000000     0.746100000000    -0.00306417 
C474     C      0.217590000000     0.634980000000     0.746100000000    -0.00303149 
C475     C      0.245350000000     0.651440000000     0.746100000000    -0.0893292  
C476     C      0.273170000000     0.635030000000     0.746100000000    -0.00254873 
C477     C      0.473950000000     0.763300000000     0.637200000000    -0.000693844
C478     C      0.493960000000     0.743960000000     0.653520000000    -0.0896794  
C479     C      0.013970000000     0.724620000000     0.637200000000     0.00393552 
C480     C      0.013580000000     0.724230000000     0.604970000000     0.00595482 
C481     C      0.493960000000     0.743960000000     0.588650000000    -0.0896425  
C482     C      0.474350000000     0.763700000000     0.604970000000    -0.000703812
C483     C      0.013970000000     0.724620000000     0.854960000000     0.0039853  
C484     C      0.493970000000     0.743960000000     0.838650000000    -0.0896113  
C485     C      0.473960000000     0.763310000000     0.854970000000    -0.000691538
C486     C      0.474350000000     0.763710000000     0.887200000000    -0.000793748
C487     C      0.493970000000     0.743960000000     0.903520000000    -0.0895274  
C488     C      0.013580000000     0.724220000000     0.887200000000     0.00586139 
C489     C      0.013850000000     0.974490000000     0.637210000000     0.00502306 
C490     C      0.493960000000     0.493960000000     0.653530000000    -0.0897374  
C491     C      0.474080000000     0.513430000000     0.637210000000    -0.000766645
C492     C      0.474480000000     0.513830000000     0.604970000000    -0.000752007
C493     C      0.493960000000     0.493960000000     0.588650000000    -0.0897481  
C494     C      0.013450000000     0.974100000000     0.604970000000     0.00540397 
C495     C      0.013840000000     0.974490000000     0.854970000000     0.00515305 
C496     C      0.493970000000     0.493960000000     0.838650000000    -0.0897676  
C497     C      0.474090000000     0.513440000000     0.854980000000    -0.000745372
C498     C      0.474490000000     0.513840000000     0.887210000000    -0.000792594
C499     C      0.493960000000     0.493960000000     0.903530000000    -0.0895993  
C500     C      0.013440000000     0.974090000000     0.887210000000     0.00530716 
C501     C      0.466120000000     0.884950000000     0.746090000000    -0.00288737 
C502     C      0.993860000000     0.901430000000     0.746090000000    -0.0941571  
C503     C      0.021700000000     0.885060000000     0.746090000000     0.00237104 
C504     C      0.021800000000     0.852970000000     0.746080000000     0.0024411  
C505     C      0.994060000000     0.836500000000     0.746080000000    -0.0940275  
C506     C      0.466220000000     0.852870000000     0.746090000000    -0.00294682 
C507     C      0.466230000000     0.602870000000     0.746090000000    -0.00271883 
C508     C      0.994070000000     0.586490000000     0.746090000000    -0.0941605  
C509     C      0.021810000000     0.602970000000     0.746090000000     0.00241364 
C510     C      0.021710000000     0.635060000000     0.746080000000     0.00219568 
C511     C      0.993860000000     0.651430000000     0.746090000000    -0.0940632  
C512     C      0.466130000000     0.634950000000     0.746090000000    -0.0027228  
C513     C      0.993970000000     0.993960000000     0.304740000000     0.374425   
C514     C      0.993960000000     0.493960000000     0.187440000000     0.373602   
C515     C      0.494100000000     0.052470000000     0.246090000000     0.377276   
C516     C      0.493830000000     0.435450000000     0.246090000000     0.378099   
C517     C      0.993970000000     0.243970000000     0.304730000000     0.373492   
C518     C      0.993960000000     0.243960000000     0.187430000000     0.373612   
C519     C      0.494090000000     0.302470000000     0.246080000000     0.378166   
C520     C      0.493840000000     0.185450000000     0.246080000000     0.378222   
C521     C      0.743960000000     0.993960000000     0.187460000000     0.380583   
C522     C      0.743960000000     0.993970000000     0.304750000000     0.380448   
C523     C      0.745030000000     0.052470000000     0.246110000000     0.376842   
C524     C      0.742900000000     0.435460000000     0.246110000000     0.37793    
C525     C      0.743960000000     0.243960000000     0.304740000000     0.379488   
C526     C      0.743960000000     0.243970000000     0.187450000000     0.379644   
C527     C      0.745030000000     0.185460000000     0.246100000000     0.378032   
C528     C      0.742900000000     0.302470000000     0.246100000000     0.377931   
C529     C      0.993970000000     0.993960000000     0.437440000000     0.374501   
C530     C      0.993960000000     0.993960000000     0.054740000000     0.373479   
C531     C      0.935450000000     0.493830000000     0.496090000000     0.37762    
C532     C      0.552470000000     0.494100000000     0.496090000000     0.378241   
C533     C      0.993970000000     0.243970000000     0.437440000000     0.380473   
C534     C      0.993960000000     0.243960000000     0.054730000000     0.379375   
C535     C      0.935460000000     0.242900000000     0.496080000000     0.377776   
C536     C      0.552470000000     0.245030000000     0.496080000000     0.377892   
C537     C      0.743960000000     0.993960000000     0.054750000000     0.372538   
C538     C      0.743960000000     0.993960000000     0.437460000000     0.373511   
C539     C      0.802470000000     0.494090000000     0.996100000000     0.377505   
C540     C      0.685450000000     0.493840000000     0.996110000000     0.377036   
C541     C      0.743970000000     0.243960000000     0.437450000000     0.379459   
C542     C      0.743960000000     0.243970000000     0.054740000000     0.378465   
C543     C      0.685460000000     0.245030000000     0.496100000000     0.377921   
C544     C      0.802470000000     0.242900000000     0.496090000000     0.378129   
C545     C      0.852890000000     0.214760000000     0.996090000000    -0.00294061 
C546     C      0.836490000000     0.242580000000     0.496090000000    -0.0894434  
C547     C      0.852950000000     0.270340000000     0.496090000000    -0.00307474 
C548     C      0.884980000000     0.270340000000     0.496090000000    -0.00313111 
C549     C      0.901440000000     0.242580000000     0.496090000000    -0.0893826  
C550     C      0.885030000000     0.214760000000     0.996090000000    -0.00297825 
C551     C      0.602900000000     0.273170000000     0.496090000000    -0.00256392 
C552     C      0.586490000000     0.245350000000     0.496090000000    -0.089352   
C553     C      0.602950000000     0.217590000000     0.996090000000    -0.00347504 
C554     C      0.634980000000     0.217590000000     0.996090000000    -0.00346671 
C555     C      0.651440000000     0.245350000000     0.496090000000    -0.0893448  
C556     C      0.635030000000     0.273170000000     0.496090000000    -0.00257015 
C557     C      0.884950000000     0.466120000000     0.996100000000    -0.00332088 
C558     C      0.901430000000     0.493850000000     0.496100000000    -0.089406   
C559     C      0.885060000000     0.021700000000     0.496100000000     0.00231565 
C560     C      0.852970000000     0.021800000000     0.496100000000     0.00246992 
C561     C      0.836490000000     0.494060000000     0.496100000000    -0.089503   
C562     C      0.852870000000     0.466220000000     0.996100000000    -0.00331868 
C563     C      0.602980000000     0.021810000000     0.496100000000     0.00235246 
C564     C      0.586490000000     0.494070000000     0.496090000000    -0.0895068  
C565     C      0.602870000000     0.466230000000     0.996090000000    -0.00322191 
C566     C      0.634950000000     0.466130000000     0.996100000000    -0.00309583 
C567     C      0.651430000000     0.493860000000     0.496100000000    -0.0893797  
C568     C      0.635060000000     0.021710000000     0.496100000000     0.00219089 
C569     C      0.724090000000     0.224490000000     0.137210000000    -2.51539e-05
C570     C      0.743960000000     0.243970000000     0.153530000000    -0.0896747  
C571     C      0.763830000000     0.263440000000     0.137210000000    -2.93452e-05
C572     C      0.763440000000     0.263840000000     0.104980000000    -0.000904028
C573     C      0.743960000000     0.243970000000     0.088660000000    -0.0880074  
C574     C      0.724490000000     0.224090000000     0.104980000000    -0.00083212 
C575     C      0.724490000000     0.224090000000     0.387210000000    -0.000647004
C576     C      0.743970000000     0.243960000000     0.403530000000    -0.0896404  
C577     C      0.763440000000     0.263840000000     0.387210000000    -0.00069672 
C578     C      0.763840000000     0.263440000000     0.354980000000    -0.000693912
C579     C      0.743970000000     0.243960000000     0.338660000000    -0.0896256  
C580     C      0.724090000000     0.224490000000     0.354980000000    -0.000680836
C581     C      0.724220000000     0.013580000000     0.137220000000     0.00648391 
C582     C      0.743960000000     0.993960000000     0.153540000000    -0.0965389  
C583     C      0.763700000000     0.474350000000     0.137220000000    -0.00011352 
C584     C      0.763300000000     0.473950000000     0.104990000000    -0.000895636
C585     C      0.743960000000     0.993960000000     0.088670000000    -0.0922328  
C586     C      0.724620000000     0.013970000000     0.104990000000     0.00374455 
C587     C      0.724220000000     0.013570000000     0.354990000000     0.00585347 
C588     C      0.743970000000     0.993970000000     0.338670000000    -0.0965273  
C589     C      0.763720000000     0.474360000000     0.354990000000    -0.000739519
C590     C      0.763310000000     0.473960000000     0.387220000000    -0.00071035 
C591     C      0.743970000000     0.993970000000     0.403540000000    -0.0938682  
C592     C      0.724620000000     0.013960000000     0.387220000000     0.00396918 
C593     C      0.770340000000     0.384980000000     0.246100000000    -0.00304713 
C594     C      0.742580000000     0.401440000000     0.246110000000    -0.0893002  
C595     C      0.714760000000     0.385030000000     0.246110000000    -0.00249465 
C596     C      0.714760000000     0.352890000000     0.246100000000    -0.00250867 
C597     C      0.742580000000     0.336490000000     0.246100000000    -0.0892959  
C598     C      0.770340000000     0.352950000000     0.246100000000    -0.00302177 
C599     C      0.773170000000     0.102890000000     0.246100000000    -0.0027051  
C600     C      0.745350000000     0.086490000000     0.246100000000    -0.088084   
C601     C      0.717590000000     0.102950000000     0.246100000000    -0.00326149 
C602     C      0.717590000000     0.134980000000     0.246100000000    -0.00262292 
C603     C      0.745350000000     0.151440000000     0.246100000000    -0.089366   
C604     C      0.773170000000     0.135030000000     0.246100000000    -0.0020969  
C605     C      0.973950000000     0.263300000000     0.137200000000    -0.000604203
C606     C      0.993960000000     0.243960000000     0.153520000000    -0.0939592  
C607     C      0.513970000000     0.224630000000     0.137200000000     2.71935e-07
C608     C      0.513580000000     0.224220000000     0.104970000000    -0.000916504
C609     C      0.993960000000     0.243960000000     0.088650000000    -0.094879   
C610     C      0.974350000000     0.263700000000     0.104970000000     0.00032121 
C611     C      0.513970000000     0.224620000000     0.354970000000    -0.000706249
C612     C      0.993970000000     0.243970000000     0.338650000000    -0.0938324  
C613     C      0.973960000000     0.263310000000     0.354970000000    -0.0012652  
C614     C      0.974360000000     0.263710000000     0.387200000000     0.000499802
C615     C      0.993970000000     0.243970000000     0.403520000000    -0.0965219  
C616     C      0.513580000000     0.224220000000     0.387200000000    -0.000743685
C617     C      0.513850000000     0.474500000000     0.137210000000    -0.000181841
C618     C      0.993960000000     0.993960000000     0.153530000000    -0.10083    
C619     C      0.974080000000     0.013430000000     0.137210000000     0.00588318 
C620     C      0.974480000000     0.013830000000     0.104980000000     0.00493008 
C621     C      0.993960000000     0.993960000000     0.088650000000    -0.0992583  
C622     C      0.513450000000     0.474100000000     0.104970000000    -0.000898715
C623     C      0.513840000000     0.474490000000     0.354970000000    -0.000861416
C624     C      0.993970000000     0.993960000000     0.338660000000    -0.100748   
C625     C      0.974090000000     0.013440000000     0.354980000000     0.0052221  
C626     C      0.974490000000     0.013840000000     0.387210000000     0.00514741 
C627     C      0.993970000000     0.993960000000     0.403530000000    -0.100927   
C628     C      0.513440000000     0.474090000000     0.387210000000    -0.000688812
C629     C      0.966120000000     0.384950000000     0.246090000000    -0.00260891 
C630     C      0.493850000000     0.401430000000     0.246090000000    -0.0894501  
C631     C      0.521700000000     0.385060000000     0.246090000000    -0.00273217 
C632     C      0.521800000000     0.352980000000     0.246080000000    -0.00265828 
C633     C      0.494070000000     0.336500000000     0.246080000000    -0.0893194  
C634     C      0.966220000000     0.352870000000     0.246090000000    -0.00276867 
C635     C      0.966230000000     0.102870000000     0.246090000000    -0.00274486 
C636     C      0.494070000000     0.086490000000     0.246090000000    -0.0882438  
C637     C      0.521810000000     0.102970000000     0.246080000000    -0.0029627  
C638     C      0.521710000000     0.135060000000     0.246080000000    -0.00246193 
C639     C      0.493860000000     0.151430000000     0.246080000000    -0.0895112  
C640     C      0.966130000000     0.134950000000     0.246090000000    -0.00213658 
C641     C      0.993960000000     0.993960000000     0.804740000000     0.374545   
C642     C      0.993960000000     0.493960000000     0.687440000000     0.373464   
C643     C      0.494100000000     0.052470000000     0.746090000000     0.377278   
C644     C      0.493830000000     0.435450000000     0.746090000000     0.378091   
C645     C      0.993960000000     0.243970000000     0.804730000000     0.373512   
C646     C      0.993960000000     0.243960000000     0.687430000000     0.373477   
C647     C      0.494090000000     0.302470000000     0.746080000000     0.378152   
C648     C      0.493840000000     0.185450000000     0.746080000000     0.377917   
C649     C      0.743960000000     0.993960000000     0.687460000000     0.380179   
C650     C      0.743960000000     0.993970000000     0.804750000000     0.380507   
C651     C      0.745030000000     0.052470000000     0.746100000000     0.376831   
C652     C      0.742890000000     0.435460000000     0.746110000000     0.378195   
C653     C      0.743960000000     0.243960000000     0.804740000000     0.379521   
C654     C      0.743960000000     0.243970000000     0.687450000000     0.379217   
C655     C      0.745030000000     0.185460000000     0.746090000000     0.378022   
C656     C      0.742890000000     0.302470000000     0.746100000000     0.378197   
C657     C      0.993960000000     0.993960000000     0.937440000000     0.374069   
C658     C      0.993960000000     0.993960000000     0.554740000000     0.374501   
C659     C      0.935450000000     0.493830000000     0.996090000000     0.376847   
C660     C      0.552470000000     0.494100000000     0.996090000000     0.37738    
C661     C      0.993970000000     0.243970000000     0.937430000000     0.379934   
C662     C      0.993960000000     0.243960000000     0.554730000000     0.380396   
C663     C      0.935460000000     0.242900000000     0.996090000000     0.377009   
C664     C      0.552470000000     0.245030000000     0.996080000000     0.377062   
C665     C      0.743960000000     0.993960000000     0.554750000000     0.373514   
C666     C      0.743970000000     0.993960000000     0.937460000000     0.373024   
C667     C      0.802470000000     0.494090000000     0.496100000000     0.378214   
C668     C      0.685450000000     0.493840000000     0.496100000000     0.377803   
C669     C      0.743970000000     0.243960000000     0.937450000000     0.379054   
C670     C      0.743960000000     0.243970000000     0.554740000000     0.379546   
C671     C      0.685460000000     0.245030000000     0.996090000000     0.377145   
C672     C      0.802470000000     0.242900000000     0.996090000000     0.377424   
C673     C      0.852890000000     0.214760000000     0.496090000000    -0.0025381  
C674     C      0.836490000000     0.242580000000     0.996090000000    -0.089897   
C675     C      0.852950000000     0.270340000000     0.996090000000    -0.0034864  
C676     C      0.884980000000     0.270340000000     0.996090000000    -0.00354185 
C677     C      0.901440000000     0.242580000000     0.996090000000    -0.0898388  
C678     C      0.885040000000     0.214760000000     0.496090000000    -0.00258785 
C679     C      0.602890000000     0.273170000000     0.996090000000    -0.00298047 
C680     C      0.586490000000     0.245350000000     0.996090000000    -0.0897918  
C681     C      0.602950000000     0.217590000000     0.496090000000    -0.00306981 
C682     C      0.634980000000     0.217590000000     0.496090000000    -0.0030504  
C683     C      0.651440000000     0.245350000000     0.996090000000    -0.0897871  
C684     C      0.635030000000     0.273170000000     0.996090000000    -0.00297513 
C685     C      0.884950000000     0.466120000000     0.496100000000    -0.00290372 
C686     C      0.901430000000     0.493850000000     0.996090000000    -0.0898431  
C687     C      0.885060000000     0.021700000000     0.996100000000     0.001885   
C688     C      0.852980000000     0.021800000000     0.996100000000     0.00207157 
C689     C      0.836490000000     0.494060000000     0.996100000000    -0.0899718  
C690     C      0.852870000000     0.466220000000     0.496100000000    -0.00292048 
C691     C      0.602970000000     0.021810000000     0.996100000000     0.00187119 
C692     C      0.586500000000     0.494070000000     0.996090000000    -0.089813   
C693     C      0.602870000000     0.466230000000     0.496100000000    -0.00274912 
C694     C      0.634950000000     0.466130000000     0.496100000000    -0.00272202 
C695     C      0.651430000000     0.493860000000     0.996100000000    -0.0898448  
C696     C      0.635060000000     0.021710000000     0.996100000000     0.00179973 
C697     C      0.724090000000     0.224490000000     0.637210000000    -0.000713624
C698     C      0.743960000000     0.243970000000     0.653530000000    -0.0894733  
C699     C      0.763840000000     0.263440000000     0.637210000000    -0.000752369
C700     C      0.763440000000     0.263840000000     0.604980000000    -0.000657334
C701     C      0.743960000000     0.243970000000     0.588660000000    -0.0896444  
C702     C      0.724490000000     0.224090000000     0.604980000000    -0.000608947
C703     C      0.724490000000     0.224090000000     0.887210000000    -0.000704332
C704     C      0.743970000000     0.243960000000     0.903530000000    -0.089467   
C705     C      0.763440000000     0.263840000000     0.887210000000    -0.000750004
C706     C      0.763840000000     0.263440000000     0.854980000000    -0.000638744
C707     C      0.743970000000     0.243960000000     0.838660000000    -0.0896259  
C708     C      0.724090000000     0.224490000000     0.854980000000    -0.000623897
C709     C      0.724220000000     0.013580000000     0.637220000000     0.00585227 
C710     C      0.743960000000     0.993960000000     0.653540000000    -0.0964032  
C711     C      0.763700000000     0.474350000000     0.637220000000    -0.000743682
C712     C      0.763300000000     0.473950000000     0.604990000000    -0.000737332
C713     C      0.743960000000     0.993960000000     0.588670000000    -0.0938244  
C714     C      0.724620000000     0.013970000000     0.604990000000     0.00394501 
C715     C      0.724220000000     0.013570000000     0.854990000000     0.00600221 
C716     C      0.743960000000     0.993970000000     0.838670000000    -0.0966     
C717     C      0.763710000000     0.474360000000     0.854990000000    -0.000587183
C718     C      0.763320000000     0.473960000000     0.887220000000    -0.000892893
C719     C      0.743970000000     0.993970000000     0.903540000000    -0.0936111  
C720     C      0.724620000000     0.013960000000     0.887220000000     0.00384734 
C721     C      0.770340000000     0.384980000000     0.746100000000    -0.00305793 
C722     C      0.742580000000     0.401440000000     0.746100000000    -0.0894548  
C723     C      0.714760000000     0.385030000000     0.746100000000    -0.00252355 
C724     C      0.714760000000     0.352890000000     0.746100000000    -0.00253754 
C725     C      0.742580000000     0.336490000000     0.746100000000    -0.0894507  
C726     C      0.770340000000     0.352950000000     0.746100000000    -0.00303265 
C727     C      0.773170000000     0.102890000000     0.746100000000    -0.0027557  
C728     C      0.745350000000     0.086490000000     0.746100000000    -0.0881384  
C729     C      0.717590000000     0.102950000000     0.746100000000    -0.00330566 
C730     C      0.717590000000     0.134980000000     0.746100000000    -0.0026666  
C731     C      0.745350000000     0.151440000000     0.746100000000    -0.0894211  
C732     C      0.773170000000     0.135030000000     0.746100000000    -0.00214691 
C733     C      0.973950000000     0.263300000000     0.637200000000    -0.00118006 
C734     C      0.993960000000     0.243960000000     0.653520000000    -0.0939576  
C735     C      0.513970000000     0.224630000000     0.637200000000    -0.000585839
C736     C      0.513580000000     0.224220000000     0.604970000000    -0.000754602
C737     C      0.993960000000     0.243960000000     0.588650000000    -0.0964837  
C738     C      0.974350000000     0.263700000000     0.604970000000     0.000488866
C739     C      0.513970000000     0.224620000000     0.854960000000    -0.000643727
C740     C      0.993970000000     0.243970000000     0.838650000000    -0.0938253  
C741     C      0.973960000000     0.263310000000     0.854970000000    -0.00123436 
C742     C      0.974360000000     0.263710000000     0.887200000000     0.000487399
C743     C      0.993970000000     0.243970000000     0.903520000000    -0.0964479  
C744     C      0.513580000000     0.224220000000     0.887200000000    -0.000780884
C745     C      0.513850000000     0.474500000000     0.637210000000    -0.000769211
C746     C      0.993960000000     0.993960000000     0.653530000000    -0.100817   
C747     C      0.974080000000     0.013430000000     0.637210000000     0.0052975  
C748     C      0.974480000000     0.013830000000     0.604970000000     0.00512799 
C749     C      0.993960000000     0.993960000000     0.588650000000    -0.100894   
C750     C      0.513450000000     0.474100000000     0.604970000000    -0.000735482
C751     C      0.513840000000     0.474490000000     0.854970000000    -0.000714903
C752     C      0.993970000000     0.993960000000     0.838650000000    -0.100887   
C753     C      0.974090000000     0.013440000000     0.854980000000     0.0053496  
C754     C      0.974490000000     0.013840000000     0.887210000000     0.0050016  
C755     C      0.993970000000     0.993960000000     0.903530000000    -0.100708   
C756     C      0.513440000000     0.474090000000     0.887210000000    -0.000816012
C757     C      0.966120000000     0.384950000000     0.746090000000    -0.00266814 
C758     C      0.493860000000     0.401430000000     0.746090000000    -0.0895048  
C759     C      0.521700000000     0.385060000000     0.746090000000    -0.00273177 
C760     C      0.521800000000     0.352980000000     0.746080000000    -0.00275416 
C761     C      0.494060000000     0.336500000000     0.746080000000    -0.0893724  
C762     C      0.966220000000     0.352870000000     0.746090000000    -0.00278193 
C763     C      0.966230000000     0.102870000000     0.746090000000    -0.00279097 
C764     C      0.494070000000     0.086490000000     0.746090000000    -0.0883313  
C765     C      0.521810000000     0.102970000000     0.746090000000    -0.00297137 
C766     C      0.521710000000     0.135060000000     0.746080000000    -0.00257426 
C767     C      0.493860000000     0.151430000000     0.746090000000    -0.0894228  
C768     C      0.966130000000     0.134950000000     0.746090000000    -0.00218429 
C769     C      0.993970000000     0.493960000000     0.304740000000     0.373422   
C770     C      0.993960000000     0.993960000000     0.187440000000     0.37459    
C771     C      0.494100000000     0.552470000000     0.246090000000     0.378239   
C772     C      0.493830000000     0.935450000000     0.246090000000     0.377688   
C773     C      0.993970000000     0.743960000000     0.304730000000     0.373493   
C774     C      0.993960000000     0.743960000000     0.187430000000     0.373594   
C775     C      0.494090000000     0.802470000000     0.246080000000     0.378183   
C776     C      0.493840000000     0.685450000000     0.246080000000     0.378138   
C777     C      0.743960000000     0.493960000000     0.187460000000     0.379598   
C778     C      0.743960000000     0.493960000000     0.304750000000     0.379452   
C779     C      0.745030000000     0.552470000000     0.246110000000     0.377866   
C780     C      0.742900000000     0.935460000000     0.246110000000     0.377532   
C781     C      0.743960000000     0.743960000000     0.304740000000     0.379488   
C782     C      0.743960000000     0.743960000000     0.187450000000     0.379657   
C783     C      0.745030000000     0.685460000000     0.246100000000     0.377956   
C784     C      0.742900000000     0.802470000000     0.246100000000     0.377884   
C785     C      0.993970000000     0.493960000000     0.437440000000     0.380346   
C786     C      0.993960000000     0.493960000000     0.054740000000     0.379297   
C787     C      0.935450000000     0.993830000000     0.496090000000     0.371901   
C788     C      0.552470000000     0.994100000000     0.496090000000     0.372331   
C789     C      0.993970000000     0.743960000000     0.437440000000     0.3805     
C790     C      0.993960000000     0.743960000000     0.054730000000     0.379415   
C791     C      0.935460000000     0.742890000000     0.496080000000     0.377795   
C792     C      0.552470000000     0.745030000000     0.496080000000     0.377912   
C793     C      0.743960000000     0.493960000000     0.054750000000     0.378367   
C794     C      0.743960000000     0.493960000000     0.437460000000     0.379359   
C795     C      0.802470000000     0.994090000000     0.996100000000     0.371894   
C796     C      0.685450000000     0.993840000000     0.996110000000     0.371316   
C797     C      0.743970000000     0.743960000000     0.437450000000     0.37948    
C798     C      0.743960000000     0.743960000000     0.054740000000     0.378478   
C799     C      0.685460000000     0.745030000000     0.496100000000     0.377937   
C800     C      0.802470000000     0.742900000000     0.496090000000     0.377853   
C801     C      0.852890000000     0.714760000000     0.996090000000    -0.00301074 
C802     C      0.836490000000     0.742580000000     0.496090000000    -0.0893302  
C803     C      0.852950000000     0.770340000000     0.496090000000    -0.0031268  
C804     C      0.884980000000     0.770340000000     0.496090000000    -0.00308041 
C805     C      0.901440000000     0.742580000000     0.496090000000    -0.089413   
C806     C      0.885030000000     0.714760000000     0.996090000000    -0.00297571 
C807     C      0.602900000000     0.773170000000     0.496090000000    -0.00255003 
C808     C      0.586490000000     0.745350000000     0.496090000000    -0.0893567  
C809     C      0.602950000000     0.717590000000     0.996090000000    -0.00348507 
C810     C      0.634980000000     0.717590000000     0.996090000000    -0.00347986 
C811     C      0.651440000000     0.745350000000     0.496090000000    -0.0893456  
C812     C      0.635030000000     0.773170000000     0.496090000000    -0.00255791 
C813     C      0.884950000000     0.966120000000     0.996100000000    -0.0031956  
C814     C      0.901430000000     0.993860000000     0.496100000000    -0.094129   
C815     C      0.885060000000     0.521700000000     0.496100000000    -0.00286133 
C816     C      0.852970000000     0.521800000000     0.496100000000    -0.00270066 
C817     C      0.836490000000     0.994060000000     0.496100000000    -0.0941486  
C818     C      0.852870000000     0.966220000000     0.996100000000    -0.00314519 
C819     C      0.602980000000     0.521810000000     0.496100000000    -0.00282921 
C820     C      0.586490000000     0.994070000000     0.496090000000    -0.0940548  
C821     C      0.602870000000     0.966230000000     0.996090000000    -0.00309206 
C822     C      0.634950000000     0.966130000000     0.996100000000    -0.00293316 
C823     C      0.651430000000     0.993860000000     0.496100000000    -0.0940776  
C824     C      0.635060000000     0.521700000000     0.496100000000    -0.00289091 
C825     C      0.724090000000     0.724490000000     0.137210000000    -3.30751e-05
C826     C      0.743960000000     0.743960000000     0.153530000000    -0.0896941  
C827     C      0.763830000000     0.763440000000     0.137210000000    -3.51734e-05
C828     C      0.763440000000     0.763840000000     0.104980000000    -0.000915925
C829     C      0.743960000000     0.743960000000     0.088660000000    -0.0880174  
C830     C      0.724490000000     0.724090000000     0.104980000000    -0.000843622
C831     C      0.724490000000     0.724090000000     0.387210000000    -0.00062926 
C832     C      0.743970000000     0.743960000000     0.403530000000    -0.0896703  
C833     C      0.763440000000     0.763840000000     0.387210000000    -0.000681174
C834     C      0.763840000000     0.763440000000     0.354980000000    -0.000710952
C835     C      0.743970000000     0.743960000000     0.338660000000    -0.0896075  
C836     C      0.724090000000     0.724480000000     0.354980000000    -0.000767601
C837     C      0.724220000000     0.513580000000     0.137220000000    -0.000111672
C838     C      0.743960000000     0.493960000000     0.153540000000    -0.0896532  
C839     C      0.763700000000     0.974350000000     0.137220000000     0.00111151 
C840     C      0.763300000000     0.973950000000     0.104990000000    -0.00141241 
C841     C      0.743960000000     0.493960000000     0.088670000000    -0.0880042  
C842     C      0.724620000000     0.513970000000     0.104990000000    -0.00088678 
C843     C      0.724220000000     0.513570000000     0.354990000000    -0.000765744
C844     C      0.743970000000     0.493960000000     0.338670000000    -0.0896261  
C845     C      0.763720000000     0.974360000000     0.354990000000     0.000481452
C846     C      0.763310000000     0.973960000000     0.387220000000    -0.00124511 
C847     C      0.743970000000     0.493960000000     0.403540000000    -0.0896332  
C848     C      0.724620000000     0.513960000000     0.387220000000    -0.000691035
C849     C      0.770340000000     0.884980000000     0.246100000000    -0.00308967 
C850     C      0.742580000000     0.901440000000     0.246110000000    -0.0892262  
C851     C      0.714760000000     0.885030000000     0.246110000000    -0.00255163 
C852     C      0.714760000000     0.852890000000     0.246100000000    -0.00252016 
C853     C      0.742580000000     0.836490000000     0.246100000000    -0.0892835  
C854     C      0.770340000000     0.852950000000     0.246100000000    -0.00302356 
C855     C      0.773170000000     0.602890000000     0.246100000000    -0.00250085 
C856     C      0.745350000000     0.586490000000     0.246100000000    -0.0892622  
C857     C      0.717590000000     0.602950000000     0.246100000000    -0.00302984 
C858     C      0.717590000000     0.634980000000     0.246100000000    -0.00300061 
C859     C      0.745350000000     0.651440000000     0.246100000000    -0.0892764  
C860     C      0.773170000000     0.635030000000     0.246100000000    -0.00248622 
C861     C      0.973950000000     0.763300000000     0.137200000000    -0.000638437
C862     C      0.993960000000     0.743960000000     0.153520000000    -0.0939182  
C863     C      0.513970000000     0.724620000000     0.137200000000    -0.00012436 
C864     C      0.513580000000     0.724230000000     0.104970000000    -0.000831493
C865     C      0.993960000000     0.743960000000     0.088650000000    -0.0949512  
C866     C      0.974350000000     0.763700000000     0.104970000000     0.000360464
C867     C      0.513970000000     0.724620000000     0.354970000000    -0.00072233 
C868     C      0.993970000000     0.743960000000     0.338650000000    -0.0938444  
C869     C      0.973960000000     0.763310000000     0.354970000000    -0.00128669 
C870     C      0.974360000000     0.763710000000     0.387200000000     0.00052053 
C871     C      0.993970000000     0.743960000000     0.403520000000    -0.0965526  
C872     C      0.513580000000     0.724220000000     0.387200000000    -0.000744956
C873     C      0.513850000000     0.974490000000     0.137210000000     0.000974743
C874     C      0.993960000000     0.493960000000     0.153530000000    -0.0939994  
C875     C      0.974080000000     0.513430000000     0.137210000000    -0.000692825
C876     C      0.974480000000     0.513830000000     0.104980000000     0.000300142
C877     C      0.993960000000     0.493960000000     0.088650000000    -0.0950402  
C878     C      0.513450000000     0.974100000000     0.104970000000    -0.00138119 
C879     C      0.513840000000     0.974490000000     0.354970000000     0.000369057
C880     C      0.993970000000     0.493960000000     0.338660000000    -0.0938707  
C881     C      0.974090000000     0.513440000000     0.354980000000    -0.00137959 
C882     C      0.974490000000     0.513840000000     0.387210000000     0.000521383
C883     C      0.993970000000     0.493960000000     0.403530000000    -0.0967239  
C884     C      0.513440000000     0.974090000000     0.387210000000    -0.00121183 
C885     C      0.966120000000     0.884950000000     0.246090000000    -0.00267201 
C886     C      0.493850000000     0.901430000000     0.246090000000    -0.0893719  
C887     C      0.521700000000     0.885060000000     0.246090000000    -0.0027795  
C888     C      0.521800000000     0.852970000000     0.246080000000    -0.00265751 
C889     C      0.494070000000     0.836500000000     0.246080000000    -0.0893177  
C890     C      0.966220000000     0.852870000000     0.246090000000    -0.00276827 
C891     C      0.966230000000     0.602870000000     0.246090000000    -0.00250938 
C892     C      0.494070000000     0.586490000000     0.246090000000    -0.0894146  
C893     C      0.521810000000     0.602970000000     0.246080000000    -0.00277531 
C894     C      0.521710000000     0.635060000000     0.246080000000    -0.00284578 
C895     C      0.493860000000     0.651430000000     0.246080000000    -0.0894202  
C896     C      0.966130000000     0.634950000000     0.246090000000    -0.00251672 
C897     C      0.993960000000     0.493960000000     0.804740000000     0.373542   
C898     C      0.993960000000     0.993960000000     0.687440000000     0.374455   
C899     C      0.494100000000     0.552470000000     0.746090000000     0.378242   
C900     C      0.493830000000     0.935450000000     0.746090000000     0.377679   
C901     C      0.993960000000     0.743960000000     0.804730000000     0.373512   
C902     C      0.993960000000     0.743960000000     0.687430000000     0.373459   
C903     C      0.494090000000     0.802470000000     0.746080000000     0.37817    
C904     C      0.493840000000     0.685450000000     0.746080000000     0.377833   
C905     C      0.743960000000     0.493960000000     0.687460000000     0.379191   
C906     C      0.743960000000     0.493960000000     0.804750000000     0.379509   
C907     C      0.745030000000     0.552470000000     0.746100000000     0.377856   
C908     C      0.742890000000     0.935460000000     0.746110000000     0.377797   
C909     C      0.743960000000     0.743960000000     0.804740000000     0.379521   
C910     C      0.743960000000     0.743960000000     0.687450000000     0.37923    
C911     C      0.745030000000     0.685460000000     0.746090000000     0.377946   
C912     C      0.742890000000     0.802470000000     0.746100000000     0.378149   
C913     C      0.993960000000     0.493960000000     0.937440000000     0.379901   
C914     C      0.993960000000     0.493960000000     0.554740000000     0.380338   
C915     C      0.935450000000     0.993830000000     0.996090000000     0.371145   
C916     C      0.552470000000     0.994100000000     0.996090000000     0.371487   
C917     C      0.993970000000     0.743960000000     0.937430000000     0.379961   
C918     C      0.993960000000     0.743960000000     0.554730000000     0.380436   
C919     C      0.935460000000     0.742890000000     0.996090000000     0.377028   
C920     C      0.552470000000     0.745030000000     0.996080000000     0.377082   
C921     C      0.743960000000     0.493960000000     0.554750000000     0.379363   
C922     C      0.743970000000     0.493960000000     0.937460000000     0.37886    
C923     C      0.802470000000     0.994090000000     0.496100000000     0.372589   
C924     C      0.685450000000     0.993840000000     0.496100000000     0.372068   
C925     C      0.743970000000     0.743960000000     0.937450000000     0.379075   
C926     C      0.743960000000     0.743960000000     0.554740000000     0.379559   
C927     C      0.685460000000     0.745030000000     0.996090000000     0.37716    
C928     C      0.802470000000     0.742900000000     0.996090000000     0.377149   
C929     C      0.852890000000     0.714760000000     0.496090000000    -0.00260834 
C930     C      0.836490000000     0.742580000000     0.996090000000    -0.0897835  
C931     C      0.852950000000     0.770340000000     0.996090000000    -0.00353811 
C932     C      0.884980000000     0.770340000000     0.996090000000    -0.00349086 
C933     C      0.901440000000     0.742580000000     0.996090000000    -0.0898687  
C934     C      0.885040000000     0.714760000000     0.496090000000    -0.00258535 
C935     C      0.602890000000     0.773170000000     0.996090000000    -0.00296626 
C936     C      0.586490000000     0.745350000000     0.996090000000    -0.0897962  
C937     C      0.602950000000     0.717590000000     0.496090000000    -0.00307986 
C938     C      0.634980000000     0.717590000000     0.496090000000    -0.00306363 
C939     C      0.651440000000     0.745350000000     0.996090000000    -0.0897876  
C940     C      0.635030000000     0.773170000000     0.996090000000    -0.00296254 
C941     C      0.884950000000     0.966120000000     0.496100000000    -0.00278027 
C942     C      0.901430000000     0.993860000000     0.996090000000    -0.0945544  
C943     C      0.885060000000     0.521700000000     0.996100000000    -0.00328384 
C944     C      0.852980000000     0.521800000000     0.996100000000    -0.00308267 
C945     C      0.836490000000     0.994060000000     0.996100000000    -0.0946005  
C946     C      0.852870000000     0.966220000000     0.496100000000    -0.00274561 
C947     C      0.602970000000     0.521810000000     0.996100000000    -0.00331112 
C948     C      0.586500000000     0.994070000000     0.996090000000    -0.0943579  
C949     C      0.602870000000     0.966230000000     0.496100000000    -0.00262603 
C950     C      0.634950000000     0.966130000000     0.496100000000    -0.00255708 
C951     C      0.651430000000     0.993860000000     0.996100000000    -0.094528   
C952     C      0.635060000000     0.521700000000     0.996100000000    -0.00326932 
C953     C      0.724090000000     0.724490000000     0.637210000000    -0.000722255
C954     C      0.743960000000     0.743960000000     0.653530000000    -0.0894926  
C955     C      0.763840000000     0.763440000000     0.637210000000    -0.000758305
C956     C      0.763440000000     0.763840000000     0.604980000000    -0.000669485
C957     C      0.743960000000     0.743960000000     0.588660000000    -0.0896555  
C958     C      0.724490000000     0.724090000000     0.604980000000    -0.000620018
C959     C      0.724490000000     0.724090000000     0.887210000000    -0.000686641
C960     C      0.743970000000     0.743960000000     0.903530000000    -0.0894968  
C961     C      0.763440000000     0.763840000000     0.887210000000    -0.000734511
C962     C      0.763840000000     0.763440000000     0.854980000000    -0.000655778
C963     C      0.743970000000     0.743960000000     0.838660000000    -0.0896078  
C964     C      0.724090000000     0.724480000000     0.854980000000    -0.000710636
C965     C      0.724220000000     0.513580000000     0.637220000000    -0.000755338
C966     C      0.743960000000     0.493960000000     0.653540000000    -0.0895067  
C967     C      0.763700000000     0.974350000000     0.637220000000     0.000483989
C968     C      0.763300000000     0.973950000000     0.604990000000    -0.00125497 
C969     C      0.743960000000     0.493960000000     0.588670000000    -0.0895901  
C970     C      0.724620000000     0.513970000000     0.604990000000    -0.000699841
C971     C      0.724220000000     0.513570000000     0.854990000000    -0.000619144
C972     C      0.743960000000     0.493960000000     0.838670000000    -0.089699   
C973     C      0.763710000000     0.974360000000     0.854990000000     0.000635435
C974     C      0.763320000000     0.973960000000     0.887220000000    -0.00142876 
C975     C      0.743970000000     0.493960000000     0.903540000000    -0.0893808  
C976     C      0.724620000000     0.513960000000     0.887220000000    -0.000806341
C977     C      0.770340000000     0.884980000000     0.746100000000    -0.00310063 
C978     C      0.742580000000     0.901440000000     0.746100000000    -0.0893804  
C979     C      0.714760000000     0.885030000000     0.746100000000    -0.00258065 
C980     C      0.714760000000     0.852890000000     0.746100000000    -0.00254897 
C981     C      0.742580000000     0.836490000000     0.746100000000    -0.0894383  
C982     C      0.770340000000     0.852950000000     0.746100000000    -0.00303437 
C983     C      0.773170000000     0.602890000000     0.746100000000    -0.00255137 
C984     C      0.745350000000     0.586490000000     0.746100000000    -0.0893176  
C985     C      0.717590000000     0.602950000000     0.746100000000    -0.00307387 
C986     C      0.717590000000     0.634980000000     0.746100000000    -0.00304469 
C987     C      0.745350000000     0.651440000000     0.746100000000    -0.0893314  
C988     C      0.773170000000     0.635030000000     0.746100000000    -0.00253666 
C989     C      0.973950000000     0.763300000000     0.637200000000    -0.00121457 
C990     C      0.993960000000     0.743960000000     0.653520000000    -0.0939167  
C991     C      0.513970000000     0.724620000000     0.637200000000    -0.000711064
C992     C      0.513580000000     0.724230000000     0.604970000000    -0.000669538
C993     C      0.993960000000     0.743960000000     0.588650000000    -0.0965571  
C994     C      0.974350000000     0.763700000000     0.604970000000     0.000528326
C995     C      0.513970000000     0.724620000000     0.854960000000    -0.000659739
C996     C      0.993970000000     0.743960000000     0.838650000000    -0.0938374  
C997     C      0.973960000000     0.763310000000     0.854970000000    -0.00125583 
C998     C      0.974360000000     0.763710000000     0.887200000000     0.000508107
C999     C      0.993970000000     0.743960000000     0.903520000000    -0.0964786  
C1000    C      0.513580000000     0.724220000000     0.887200000000    -0.000782259
C1001    C      0.513850000000     0.974490000000     0.637210000000     0.000388954
C1002    C      0.993960000000     0.493960000000     0.653530000000    -0.0939761  
C1003    C      0.974080000000     0.513430000000     0.637210000000    -0.00128951 
C1004    C      0.974480000000     0.513830000000     0.604970000000     0.000479152
C1005    C      0.993960000000     0.493960000000     0.588650000000    -0.0966664  
C1006    C      0.513450000000     0.974100000000     0.604970000000    -0.0012168  
C1007    C      0.513840000000     0.974490000000     0.854970000000     0.000511747
C1008    C      0.993970000000     0.493960000000     0.838650000000    -0.0940172  
C1009    C      0.974090000000     0.513440000000     0.854980000000    -0.00124686 
C1010    C      0.974490000000     0.513840000000     0.887210000000     0.000376805
C1011    C      0.993970000000     0.493960000000     0.903530000000    -0.0965068  
C1012    C      0.513440000000     0.974090000000     0.887210000000    -0.00133618 
C1013    C      0.966120000000     0.884950000000     0.746090000000    -0.00273129 
C1014    C      0.493860000000     0.901430000000     0.746090000000    -0.0894265  
C1015    C      0.521700000000     0.885060000000     0.746090000000    -0.00277922 
C1016    C      0.521800000000     0.852970000000     0.746080000000    -0.00275332 
C1017    C      0.494060000000     0.836500000000     0.746080000000    -0.0893707  
C1018    C      0.966220000000     0.852870000000     0.746090000000    -0.00278149 
C1019    C      0.966230000000     0.602870000000     0.746090000000    -0.00255538 
C1020    C      0.494070000000     0.586490000000     0.746090000000    -0.0895032  
C1021    C      0.521810000000     0.602970000000     0.746090000000    -0.00278387 
C1022    C      0.521710000000     0.635060000000     0.746080000000    -0.00295854 
C1023    C      0.493860000000     0.651430000000     0.746090000000    -0.0893318  
C1024    C      0.966130000000     0.634950000000     0.746090000000    -0.00256483 
H1       H      0.340940000000     0.192960000000     0.996090000000     0.0446559  
H2       H      0.341110000000     0.292210000000     0.496090000000     0.0443518  
H3       H      0.396810000000     0.292210000000     0.496090000000     0.0444377  
H4       H      0.396980000000     0.192960000000     0.996090000000     0.0445529  
H5       H      0.090940000000     0.294970000000     0.496090000000     0.0458094  
H6       H      0.091120000000     0.195720000000     0.996090000000     0.0446775  
H7       H      0.146810000000     0.195720000000     0.996090000000     0.043996   
H8       H      0.146990000000     0.294970000000     0.496090000000     0.0452819  
H9       H      0.396800000000     0.444260000000     0.996100000000     0.0439904  
H10      H      0.397000000000     0.043510000000     0.496100000000     0.0444405  
H11      H      0.341130000000     0.043660000000     0.496100000000     0.0447743  
H12      H      0.340930000000     0.444410000000     0.996100000000     0.0437438  
H13      H      0.091120000000     0.043670000000     0.496100000000     0.0450553  
H14      H      0.090930000000     0.444420000000     0.996090000000     0.0449612  
H15      H      0.146800000000     0.444270000000     0.996100000000     0.044648   
H16      H      0.147000000000     0.043520000000     0.496100000000     0.0441314  
H17      H      0.208660000000     0.209200000000     0.149400000000     0.041658   
H18      H      0.279260000000     0.278730000000     0.149390000000     0.0414749  
H19      H      0.278720000000     0.279270000000     0.092800000000     0.0423852  
H20      H      0.209200000000     0.208660000000     0.092800000000     0.0425879  
H21      H      0.209200000000     0.208660000000     0.399400000000     0.0413727  
H22      H      0.278730000000     0.279270000000     0.399390000000     0.0411714  
H23      H      0.279270000000     0.278730000000     0.342800000000     0.0411828  
H24      H      0.208660000000     0.209200000000     0.342800000000     0.0413778  
H25      H      0.208900000000     0.028970000000     0.149410000000     0.0416549  
H26      H      0.279020000000     0.458960000000     0.149400000000     0.041514   
H27      H      0.278480000000     0.458420000000     0.092800000000     0.0424267  
H28      H      0.209450000000     0.029510000000     0.092810000000     0.042703   
H29      H      0.208880000000     0.028950000000     0.342810000000     0.0413586  
H30      H      0.279050000000     0.458980000000     0.342800000000     0.0412327  
H31      H      0.278500000000     0.458440000000     0.399400000000     0.0412259  
H32      H      0.209430000000     0.029490000000     0.399410000000     0.0414928  
H33      H      0.292210000000     0.396810000000     0.246100000000     0.0445225  
H34      H      0.192960000000     0.396990000000     0.246110000000     0.0452544  
H35      H      0.192960000000     0.340940000000     0.246100000000     0.0453813  
H36      H      0.292210000000     0.341110000000     0.246100000000     0.0444669  
H37      H      0.294970000000     0.090940000000     0.246100000000     0.0459264  
H38      H      0.195720000000     0.091110000000     0.246110000000     0.0453943  
H39      H      0.195720000000     0.146810000000     0.246100000000     0.0447063  
H40      H      0.294970000000     0.146990000000     0.246090000000     0.0453573  
H41      H      0.458420000000     0.278480000000     0.149380000000     0.0415225  
H42      H      0.029510000000     0.209450000000     0.149380000000     0.041769   
H43      H      0.028970000000     0.208900000000     0.092780000000     0.0425659  
H44      H      0.458960000000     0.279020000000     0.092780000000     0.0424245  
H45      H      0.029500000000     0.209440000000     0.342780000000     0.0415083  
H46      H      0.458430000000     0.278490000000     0.342780000000     0.0412274  
H47      H      0.458970000000     0.279030000000     0.399380000000     0.0412307  
H48      H      0.028960000000     0.208900000000     0.399380000000     0.0413729  
H49      H      0.029280000000     0.459220000000     0.149390000000     0.0418988  
H50      H      0.458640000000     0.028700000000     0.149390000000     0.0417705  
H51      H      0.459190000000     0.029250000000     0.092790000000     0.0427923  
H52      H      0.028730000000     0.458670000000     0.092790000000     0.0426573  
H53      H      0.029270000000     0.459210000000     0.342790000000     0.0416152  
H54      H      0.458660000000     0.028720000000     0.342790000000     0.0414775  
H55      H      0.459200000000     0.029270000000     0.399400000000     0.0415902  
H56      H      0.028730000000     0.458660000000     0.399390000000     0.0414282  
H57      H      0.444260000000     0.396800000000     0.246090000000     0.0446914  
H58      H      0.043510000000     0.397000000000     0.246080000000     0.0445354  
H59      H      0.043660000000     0.341130000000     0.246080000000     0.0448653  
H60      H      0.444410000000     0.340930000000     0.246090000000     0.0444799  
H61      H      0.444420000000     0.090930000000     0.246090000000     0.0456783  
H62      H      0.043670000000     0.091120000000     0.246080000000     0.0451323  
H63      H      0.043520000000     0.147000000000     0.246080000000     0.0442291  
H64      H      0.444260000000     0.146800000000     0.246090000000     0.0453183  
H65      H      0.340940000000     0.192960000000     0.496090000000     0.0452567  
H66      H      0.341120000000     0.292210000000     0.996090000000     0.0437271  
H67      H      0.396810000000     0.292210000000     0.996090000000     0.0438143  
H68      H      0.396990000000     0.192960000000     0.496090000000     0.0451575  
H69      H      0.090940000000     0.294970000000     0.996090000000     0.0452067  
H70      H      0.091110000000     0.195720000000     0.496090000000     0.0452972  
H71      H      0.146810000000     0.195720000000     0.496090000000     0.0446185  
H72      H      0.146990000000     0.294970000000     0.996090000000     0.0446779  
H73      H      0.396800000000     0.444260000000     0.496100000000     0.0445972  
H74      H      0.397000000000     0.043510000000     0.996090000000     0.0438355  
H75      H      0.341130000000     0.043660000000     0.996100000000     0.0441604  
H76      H      0.340930000000     0.444410000000     0.496100000000     0.044377   
H77      H      0.091120000000     0.043670000000     0.996100000000     0.044444   
H78      H      0.090930000000     0.444420000000     0.496090000000     0.0455736  
H79      H      0.146800000000     0.444270000000     0.496100000000     0.0452531  
H80      H      0.147000000000     0.043520000000     0.996100000000     0.043513   
H81      H      0.208660000000     0.209200000000     0.649390000000     0.0413935  
H82      H      0.279260000000     0.278730000000     0.649390000000     0.0412142  
H83      H      0.278730000000     0.279270000000     0.592800000000     0.0412022  
H84      H      0.209200000000     0.208660000000     0.592800000000     0.0414108  
H85      H      0.209200000000     0.208660000000     0.899400000000     0.0413818  
H86      H      0.278730000000     0.279270000000     0.899390000000     0.0411878  
H87      H      0.279270000000     0.278730000000     0.842800000000     0.0411925  
H88      H      0.208660000000     0.209200000000     0.842800000000     0.0413896  
H89      H      0.208900000000     0.028970000000     0.649410000000     0.0414024  
H90      H      0.279020000000     0.458960000000     0.649400000000     0.0412626  
H91      H      0.278470000000     0.458420000000     0.592800000000     0.0412604  
H92      H      0.209450000000     0.029510000000     0.592810000000     0.0415303  
H93      H      0.208880000000     0.028950000000     0.842810000000     0.0413711  
H94      H      0.279050000000     0.458980000000     0.842800000000     0.0412381  
H95      H      0.278500000000     0.458440000000     0.899400000000     0.0412393  
H96      H      0.209430000000     0.029490000000     0.899410000000     0.0415081  
H97      H      0.292210000000     0.396810000000     0.746100000000     0.0444731  
H98      H      0.192960000000     0.396990000000     0.746110000000     0.0451898  
H99      H      0.192960000000     0.340940000000     0.746100000000     0.045292   
H100     H      0.292210000000     0.341110000000     0.746100000000     0.0443871  
H101     H      0.294970000000     0.090940000000     0.746100000000     0.0458332  
H102     H      0.195720000000     0.091110000000     0.746110000000     0.0453197  
H103     H      0.195720000000     0.146810000000     0.746100000000     0.0446418  
H104     H      0.294970000000     0.146990000000     0.746090000000     0.0453067  
H105     H      0.458420000000     0.278480000000     0.649390000000     0.0412506  
H106     H      0.029510000000     0.209450000000     0.649380000000     0.0414974  
H107     H      0.028970000000     0.208900000000     0.592780000000     0.0413942  
H108     H      0.458960000000     0.279020000000     0.592780000000     0.0412554  
H109     H      0.029500000000     0.209440000000     0.842780000000     0.0415237  
H110     H      0.458430000000     0.278490000000     0.842780000000     0.0412392  
H111     H      0.458970000000     0.279030000000     0.899380000000     0.0412533  
H112     H      0.028960000000     0.208900000000     0.899380000000     0.0413735  
H113     H      0.029280000000     0.459220000000     0.649390000000     0.041631   
H114     H      0.458640000000     0.028700000000     0.649390000000     0.0414964  
H115     H      0.459190000000     0.029250000000     0.592790000000     0.0416204  
H116     H      0.028740000000     0.458670000000     0.592790000000     0.0414655  
H117     H      0.029270000000     0.459210000000     0.842790000000     0.0416109  
H118     H      0.458660000000     0.028720000000     0.842790000000     0.0414827  
H119     H      0.459200000000     0.029270000000     0.899390000000     0.0416068  
H120     H      0.028730000000     0.458660000000     0.899390000000     0.0414573  
H121     H      0.444260000000     0.396800000000     0.746090000000     0.0446252  
H122     H      0.043510000000     0.397000000000     0.746090000000     0.0444538  
H123     H      0.043660000000     0.341130000000     0.746080000000     0.0447918  
H124     H      0.444410000000     0.340930000000     0.746090000000     0.0443965  
H125     H      0.444420000000     0.090930000000     0.746090000000     0.0455896  
H126     H      0.043670000000     0.091120000000     0.746090000000     0.0450552  
H127     H      0.043520000000     0.147000000000     0.746080000000     0.0441548  
H128     H      0.444270000000     0.146800000000     0.746090000000     0.0452805  
H129     H      0.340940000000     0.692960000000     0.996090000000     0.0445665  
H130     H      0.341110000000     0.792210000000     0.496090000000     0.0443772  
H131     H      0.396810000000     0.792210000000     0.496090000000     0.04443    
H132     H      0.396980000000     0.692960000000     0.996090000000     0.0444478  
H133     H      0.090940000000     0.794970000000     0.496090000000     0.0458137  
H134     H      0.091120000000     0.695720000000     0.996090000000     0.0445826  
H135     H      0.146810000000     0.695720000000     0.996090000000     0.0439072  
H136     H      0.146990000000     0.794970000000     0.496090000000     0.0452837  
H137     H      0.396800000000     0.944260000000     0.996100000000     0.0437981  
H138     H      0.397000000000     0.543510000000     0.496100000000     0.0448782  
H139     H      0.341130000000     0.543660000000     0.496100000000     0.0451414  
H140     H      0.340930000000     0.944410000000     0.996100000000     0.0435761  
H141     H      0.091120000000     0.543670000000     0.496100000000     0.0454217  
H142     H      0.090930000000     0.944420000000     0.996090000000     0.0448131  
H143     H      0.146800000000     0.944270000000     0.996100000000     0.0444482  
H144     H      0.147000000000     0.543520000000     0.496100000000     0.0445369  
H145     H      0.208660000000     0.709200000000     0.149400000000     0.0415671  
H146     H      0.279260000000     0.778730000000     0.149390000000     0.041477   
H147     H      0.278720000000     0.779270000000     0.092800000000     0.04239    
H148     H      0.209200000000     0.708660000000     0.092800000000     0.0425116  
H149     H      0.209200000000     0.708660000000     0.399400000000     0.041289   
H150     H      0.278730000000     0.779270000000     0.399390000000     0.0411681  
H151     H      0.279270000000     0.778730000000     0.342800000000     0.0411824  
H152     H      0.208660000000     0.709200000000     0.342800000000     0.0413164  
H153     H      0.208900000000     0.528970000000     0.149410000000     0.0416409  
H154     H      0.279020000000     0.958960000000     0.149400000000     0.0408685  
H155     H      0.278480000000     0.958420000000     0.092800000000     0.0422193  
H156     H      0.209450000000     0.529510000000     0.092810000000     0.0425562  
H157     H      0.208880000000     0.528950000000     0.342810000000     0.0413502  
H158     H      0.279050000000     0.958980000000     0.342800000000     0.0405858  
H159     H      0.278500000000     0.958440000000     0.399400000000     0.0410233  
H160     H      0.209430000000     0.529490000000     0.399410000000     0.0413448  
H161     H      0.292210000000     0.896810000000     0.246100000000     0.0444125  
H162     H      0.192960000000     0.896990000000     0.246110000000     0.0451101  
H163     H      0.192960000000     0.840940000000     0.246100000000     0.0453482  
H164     H      0.292210000000     0.841110000000     0.246100000000     0.0444439  
H165     H      0.294970000000     0.590940000000     0.246100000000     0.0451734  
H166     H      0.195720000000     0.591120000000     0.246110000000     0.0446973  
H167     H      0.195720000000     0.646810000000     0.246100000000     0.0445919  
H168     H      0.294970000000     0.646990000000     0.246090000000     0.0452286  
H169     H      0.458420000000     0.778480000000     0.149380000000     0.0415234  
H170     H      0.029510000000     0.709450000000     0.149380000000     0.0417134  
H171     H      0.028970000000     0.708900000000     0.092780000000     0.0424559  
H172     H      0.458960000000     0.779020000000     0.092780000000     0.0424131  
H173     H      0.029500000000     0.709440000000     0.342780000000     0.041414   
H174     H      0.458430000000     0.778490000000     0.342780000000     0.0412305  
H175     H      0.458970000000     0.779040000000     0.399380000000     0.0412194  
H176     H      0.028960000000     0.708900000000     0.399380000000     0.0412864  
H177     H      0.029280000000     0.959220000000     0.149390000000     0.0412689  
H178     H      0.458640000000     0.528700000000     0.149390000000     0.0417518  
H179     H      0.459190000000     0.529250000000     0.092790000000     0.0426391  
H180     H      0.028730000000     0.958670000000     0.092790000000     0.0424403  
H181     H      0.029270000000     0.959210000000     0.342790000000     0.0409617  
H182     H      0.458660000000     0.528720000000     0.342790000000     0.0414618  
H183     H      0.459200000000     0.529270000000     0.399400000000     0.0414301  
H184     H      0.028730000000     0.958660000000     0.399390000000     0.0412223  
H185     H      0.444260000000     0.896800000000     0.246090000000     0.0445487  
H186     H      0.043510000000     0.897000000000     0.246080000000     0.0444249  
H187     H      0.043660000000     0.841130000000     0.246080000000     0.0448414  
H188     H      0.444410000000     0.840930000000     0.246090000000     0.0444486  
H189     H      0.444420000000     0.590930000000     0.246090000000     0.0449804  
H190     H      0.043670000000     0.591130000000     0.246080000000     0.0443729  
H191     H      0.043520000000     0.647000000000     0.246080000000     0.0441009  
H192     H      0.444260000000     0.646800000000     0.246090000000     0.0452021  
H193     H      0.340940000000     0.692960000000     0.496090000000     0.0451673  
H194     H      0.341120000000     0.792210000000     0.996090000000     0.0437533  
H195     H      0.396810000000     0.792210000000     0.996090000000     0.0438074  
H196     H      0.396990000000     0.692960000000     0.496090000000     0.0450525  
H197     H      0.090940000000     0.794970000000     0.996090000000     0.0452118  
H198     H      0.091110000000     0.695720000000     0.496090000000     0.0452024  
H199     H      0.146810000000     0.695720000000     0.496090000000     0.0445298  
H200     H      0.146990000000     0.794970000000     0.996090000000     0.0446806  
H201     H      0.396800000000     0.944260000000     0.496100000000     0.0444035  
H202     H      0.397000000000     0.543510000000     0.996090000000     0.0442718  
H203     H      0.341130000000     0.543660000000     0.996100000000     0.0445247  
H204     H      0.340930000000     0.944410000000     0.496100000000     0.0442065  
H205     H      0.091120000000     0.543670000000     0.996100000000     0.0448087  
H206     H      0.090930000000     0.944420000000     0.496090000000     0.0454238  
H207     H      0.146800000000     0.944270000000     0.496100000000     0.0450515  
H208     H      0.147000000000     0.543520000000     0.996100000000     0.0439165  
H209     H      0.208660000000     0.709200000000     0.649390000000     0.0413021  
H210     H      0.279260000000     0.778730000000     0.649390000000     0.0412163  
H211     H      0.278730000000     0.779270000000     0.592800000000     0.0412068  
H212     H      0.209200000000     0.708660000000     0.592800000000     0.0413329  
H213     H      0.209200000000     0.708660000000     0.899400000000     0.0412981  
H214     H      0.278730000000     0.779270000000     0.899390000000     0.0411845  
H215     H      0.279270000000     0.778730000000     0.842800000000     0.0411921  
H216     H      0.208660000000     0.709200000000     0.842800000000     0.0413282  
H217     H      0.208900000000     0.528970000000     0.649410000000     0.0413876  
H218     H      0.279020000000     0.958960000000     0.649400000000     0.0406165  
H219     H      0.278470000000     0.958420000000     0.592800000000     0.0410546  
H220     H      0.209450000000     0.529510000000     0.592810000000     0.0413803  
H221     H      0.208880000000     0.528950000000     0.842810000000     0.0413624  
H222     H      0.279050000000     0.958980000000     0.842800000000     0.0405916  
H223     H      0.278500000000     0.958440000000     0.899400000000     0.041037   
H224     H      0.209430000000     0.529490000000     0.899410000000     0.0413601  
H225     H      0.292210000000     0.896810000000     0.746100000000     0.0443632  
H226     H      0.192960000000     0.896990000000     0.746110000000     0.0450456  
H227     H      0.192960000000     0.840940000000     0.746100000000     0.045259   
H228     H      0.292210000000     0.841110000000     0.746100000000     0.0443642  
H229     H      0.294970000000     0.590940000000     0.746100000000     0.0450793  
H230     H      0.195720000000     0.591120000000     0.746110000000     0.044622   
H231     H      0.195720000000     0.646810000000     0.746100000000     0.0445271  
H232     H      0.294970000000     0.646990000000     0.746090000000     0.0451778  
H233     H      0.458420000000     0.778480000000     0.649390000000     0.0412515  
H234     H      0.029510000000     0.709450000000     0.649380000000     0.0414413  
H235     H      0.028970000000     0.708900000000     0.592780000000     0.0412827  
H236     H      0.458960000000     0.779020000000     0.592780000000     0.0412437  
H237     H      0.029500000000     0.709440000000     0.842780000000     0.0414294  
H238     H      0.458430000000     0.778490000000     0.842780000000     0.0412423  
H239     H      0.458970000000     0.779040000000     0.899380000000     0.0412421  
H240     H      0.028960000000     0.708900000000     0.899380000000     0.041287   
H241     H      0.029280000000     0.959220000000     0.649390000000     0.0410009  
H242     H      0.458640000000     0.528700000000     0.649390000000     0.0414766  
H243     H      0.459190000000     0.529250000000     0.592790000000     0.0414665  
H244     H      0.028740000000     0.958670000000     0.592790000000     0.0412491  
H245     H      0.029270000000     0.959210000000     0.842790000000     0.0409588  
H246     H      0.458660000000     0.528720000000     0.842790000000     0.0414645  
H247     H      0.459200000000     0.529270000000     0.899390000000     0.041449   
H248     H      0.028730000000     0.958660000000     0.899390000000     0.0412513  
H249     H      0.444260000000     0.896800000000     0.746090000000     0.0444825  
H250     H      0.043510000000     0.897000000000     0.746090000000     0.0443434  
H251     H      0.043660000000     0.841130000000     0.746080000000     0.044768   
H252     H      0.444410000000     0.840930000000     0.746090000000     0.0443652  
H253     H      0.444420000000     0.590930000000     0.746090000000     0.0448909  
H254     H      0.043670000000     0.591130000000     0.746090000000     0.044295   
H255     H      0.043520000000     0.647000000000     0.746080000000     0.0440265  
H256     H      0.444270000000     0.646800000000     0.746090000000     0.0451642  
H257     H      0.840940000000     0.192960000000     0.996090000000     0.0446276  
H258     H      0.841120000000     0.292210000000     0.496090000000     0.0443258  
H259     H      0.896810000000     0.292210000000     0.496090000000     0.0443249  
H260     H      0.896990000000     0.192960000000     0.996090000000     0.0444075  
H261     H      0.590940000000     0.294970000000     0.496090000000     0.0450547  
H262     H      0.591110000000     0.195720000000     0.996090000000     0.0439755  
H263     H      0.646810000000     0.195720000000     0.996090000000     0.0438857  
H264     H      0.646990000000     0.294970000000     0.496090000000     0.0451551  
H265     H      0.896800000000     0.444260000000     0.996100000000     0.0438489  
H266     H      0.897000000000     0.043510000000     0.496100000000     0.0443352  
H267     H      0.841130000000     0.043660000000     0.496100000000     0.0447409  
H268     H      0.840930000000     0.444410000000     0.996100000000     0.0437141  
H269     H      0.591120000000     0.043670000000     0.496100000000     0.0442984  
H270     H      0.590930000000     0.444420000000     0.996090000000     0.0442689  
H271     H      0.646800000000     0.444270000000     0.996100000000     0.0445245  
H272     H      0.647000000000     0.043520000000     0.496100000000     0.0440062  
H273     H      0.708660000000     0.209200000000     0.149400000000     0.0415898  
H274     H      0.779260000000     0.278730000000     0.149390000000     0.0414575  
H275     H      0.778720000000     0.279270000000     0.092800000000     0.0423867  
H276     H      0.709200000000     0.208660000000     0.092800000000     0.0424893  
H277     H      0.709200000000     0.208660000000     0.399400000000     0.0412888  
H278     H      0.778730000000     0.279270000000     0.399390000000     0.0411672  
H279     H      0.779270000000     0.278730000000     0.342800000000     0.0411818  
H280     H      0.708660000000     0.209200000000     0.342800000000     0.0413035  
H281     H      0.708900000000     0.028970000000     0.149410000000     0.0415761  
H282     H      0.779020000000     0.458960000000     0.149400000000     0.0415119  
H283     H      0.778480000000     0.458420000000     0.092800000000     0.0424217  
H284     H      0.709450000000     0.029510000000     0.092810000000     0.0426193  
H285     H      0.708890000000     0.028950000000     0.342810000000     0.0412884  
H286     H      0.779050000000     0.458980000000     0.342800000000     0.0412327  
H287     H      0.778500000000     0.458440000000     0.399400000000     0.0412216  
H288     H      0.709430000000     0.029490000000     0.399410000000     0.0413969  
H289     H      0.792210000000     0.396810000000     0.246100000000     0.0445453  
H290     H      0.692960000000     0.396990000000     0.246110000000     0.0451727  
H291     H      0.692960000000     0.340940000000     0.246100000000     0.0452697  
H292     H      0.792210000000     0.341110000000     0.246100000000     0.0444614  
H293     H      0.794970000000     0.090940000000     0.246100000000     0.0459183  
H294     H      0.695720000000     0.091110000000     0.246110000000     0.0452952  
H295     H      0.695720000000     0.146810000000     0.246100000000     0.0446239  
H296     H      0.794970000000     0.146990000000     0.246090000000     0.0453905  
H297     H      0.958420000000     0.278480000000     0.149380000000     0.0413169  
H298     H      0.529510000000     0.209450000000     0.149380000000     0.0416198  
H299     H      0.528970000000     0.208900000000     0.092780000000     0.0425529  
H300     H      0.958960000000     0.279020000000     0.092780000000     0.0417664  
H301     H      0.529500000000     0.209440000000     0.342780000000     0.0413606  
H302     H      0.958430000000     0.278490000000     0.342780000000     0.0410278  
H303     H      0.958970000000     0.279030000000     0.399380000000     0.0405735  
H304     H      0.528960000000     0.208900000000     0.399380000000     0.0413586  
H305     H      0.529280000000     0.459220000000     0.149390000000     0.0417481  
H306     H      0.958640000000     0.028700000000     0.149390000000     0.041563   
H307     H      0.959190000000     0.029250000000     0.092790000000     0.0421513  
H308     H      0.528740000000     0.458670000000     0.092790000000     0.0426323  
H309     H      0.529270000000     0.459210000000     0.342790000000     0.0414641  
H310     H      0.958660000000     0.028720000000     0.342790000000     0.0412767  
H311     H      0.959200000000     0.029270000000     0.399400000000     0.040935   
H312     H      0.528730000000     0.458660000000     0.399390000000     0.0414113  
H313     H      0.944260000000     0.396800000000     0.246090000000     0.0444975  
H314     H      0.543510000000     0.397000000000     0.246080000000     0.0449723  
H315     H      0.543660000000     0.341130000000     0.246080000000     0.0452303  
H316     H      0.944410000000     0.340930000000     0.246090000000     0.04431    
H317     H      0.944420000000     0.090930000000     0.246090000000     0.0454995  
H318     H      0.543670000000     0.091120000000     0.246080000000     0.0455115  
H319     H      0.543520000000     0.147000000000     0.246080000000     0.0446394  
H320     H      0.944270000000     0.146800000000     0.246090000000     0.0451605  
H321     H      0.840940000000     0.192960000000     0.496090000000     0.0452254  
H322     H      0.841120000000     0.292210000000     0.996090000000     0.0437018  
H323     H      0.896810000000     0.292210000000     0.996090000000     0.0437009  
H324     H      0.896980000000     0.192960000000     0.496090000000     0.0450147  
H325     H      0.590940000000     0.294970000000     0.996090000000     0.0444448  
H326     H      0.591120000000     0.195720000000     0.496090000000     0.0445957  
H327     H      0.646810000000     0.195720000000     0.496090000000     0.0445062  
H328     H      0.646990000000     0.294970000000     0.996090000000     0.0445498  
H329     H      0.896800000000     0.444260000000     0.496100000000     0.0444611  
H330     H      0.897000000000     0.043510000000     0.996090000000     0.0437274  
H331     H      0.841120000000     0.043660000000     0.996100000000     0.044136   
H332     H      0.840930000000     0.444410000000     0.496100000000     0.0443341  
H333     H      0.591130000000     0.043670000000     0.996100000000     0.0436963  
H334     H      0.590930000000     0.444420000000     0.496090000000     0.0448707  
H335     H      0.646800000000     0.444270000000     0.496100000000     0.0451381  
H336     H      0.647000000000     0.043520000000     0.996100000000     0.0433781  
H337     H      0.708660000000     0.209200000000     0.649390000000     0.0413461  
H338     H      0.779260000000     0.278730000000     0.649390000000     0.0412296  
H339     H      0.778720000000     0.279270000000     0.592800000000     0.0411999  
H340     H      0.709200000000     0.208660000000     0.592800000000     0.041299   
H341     H      0.709200000000     0.208660000000     0.899400000000     0.0412983  
H342     H      0.778730000000     0.279270000000     0.899390000000     0.0411824  
H343     H      0.779270000000     0.278730000000     0.842800000000     0.0411902  
H344     H      0.708660000000     0.209200000000     0.842800000000     0.0413149  
H345     H      0.708900000000     0.028970000000     0.649410000000     0.0413214  
H346     H      0.779020000000     0.458960000000     0.649400000000     0.0412572  
H347     H      0.778470000000     0.458420000000     0.592800000000     0.0412528  
H348     H      0.709450000000     0.029510000000     0.592810000000     0.0414419  
H349     H      0.708880000000     0.028950000000     0.842810000000     0.0412749  
H350     H      0.779050000000     0.458980000000     0.842800000000     0.0412071  
H351     H      0.778500000000     0.458440000000     0.899400000000     0.0412608  
H352     H      0.709430000000     0.029490000000     0.899410000000     0.0414311  
H353     H      0.792210000000     0.396810000000     0.746100000000     0.0444586  
H354     H      0.692960000000     0.396990000000     0.746110000000     0.0450817  
H355     H      0.692960000000     0.340940000000     0.746100000000     0.0451778  
H356     H      0.792210000000     0.341110000000     0.746100000000     0.0443755  
H357     H      0.794970000000     0.090940000000     0.746100000000     0.045836   
H358     H      0.695720000000     0.091110000000     0.746110000000     0.0452244  
H359     H      0.695720000000     0.146810000000     0.746100000000     0.0445531  
H360     H      0.794970000000     0.146990000000     0.746090000000     0.0453071  
H361     H      0.958420000000     0.278480000000     0.649390000000     0.0410432  
H362     H      0.529510000000     0.209450000000     0.649380000000     0.0413471  
H363     H      0.528970000000     0.208900000000     0.592780000000     0.0413786  
H364     H      0.958960000000     0.279020000000     0.592780000000     0.0406001  
H365     H      0.529500000000     0.209440000000     0.842780000000     0.0413701  
H366     H      0.958430000000     0.278490000000     0.842780000000     0.0410415  
H367     H      0.958970000000     0.279030000000     0.899380000000     0.0405745  
H368     H      0.528960000000     0.208900000000     0.899380000000     0.0413639  
H369     H      0.529280000000     0.459220000000     0.649390000000     0.0414734  
H370     H      0.958640000000     0.028700000000     0.649390000000     0.0412892  
H371     H      0.959190000000     0.029250000000     0.592790000000     0.040958   
H372     H      0.528740000000     0.458670000000     0.592790000000     0.0414494  
H373     H      0.529270000000     0.459210000000     0.842790000000     0.0414523  
H374     H      0.958660000000     0.028720000000     0.842790000000     0.0412682  
H375     H      0.959210000000     0.029270000000     0.899390000000     0.0409672  
H376     H      0.528730000000     0.458660000000     0.899390000000     0.0414411  
H377     H      0.944260000000     0.396800000000     0.746090000000     0.0444214  
H378     H      0.543510000000     0.397000000000     0.746090000000     0.0448852  
H379     H      0.543660000000     0.341130000000     0.746080000000     0.0451606  
H380     H      0.944410000000     0.340930000000     0.746090000000     0.044228   
H381     H      0.944420000000     0.090930000000     0.746090000000     0.0454227  
H382     H      0.543670000000     0.091120000000     0.746090000000     0.0454255  
H383     H      0.543520000000     0.147000000000     0.746080000000     0.0445856  
H384     H      0.944270000000     0.146800000000     0.746090000000     0.0450788  
H385     H      0.840940000000     0.692960000000     0.996090000000     0.0445381  
H386     H      0.841120000000     0.792210000000     0.496090000000     0.0443512  
H387     H      0.896810000000     0.792210000000     0.496090000000     0.0443173  
H388     H      0.896990000000     0.692960000000     0.996090000000     0.0443024  
H389     H      0.590940000000     0.794970000000     0.496090000000     0.045059   
H390     H      0.591110000000     0.695720000000     0.996090000000     0.0438793  
H391     H      0.646810000000     0.695720000000     0.996090000000     0.0437964  
H392     H      0.646990000000     0.794970000000     0.496090000000     0.045157   
H393     H      0.896800000000     0.944260000000     0.996100000000     0.0436567  
H394     H      0.897000000000     0.543510000000     0.496100000000     0.0447726  
H395     H      0.841130000000     0.543660000000     0.496100000000     0.0451068  
H396     H      0.840930000000     0.944410000000     0.996100000000     0.0435472  
H397     H      0.591120000000     0.543670000000     0.496100000000     0.0446612  
H398     H      0.590930000000     0.944420000000     0.996090000000     0.0441206  
H399     H      0.646800000000     0.944270000000     0.996100000000     0.0443248  
H400     H      0.647000000000     0.543520000000     0.496100000000     0.0444119  
H401     H      0.708660000000     0.709200000000     0.149400000000     0.0414987  
H402     H      0.779260000000     0.778730000000     0.149390000000     0.0414596  
H403     H      0.778720000000     0.779270000000     0.092800000000     0.0423915  
H404     H      0.709200000000     0.708660000000     0.092800000000     0.0424128  
H405     H      0.709200000000     0.708660000000     0.399400000000     0.0412049  
H406     H      0.778730000000     0.779270000000     0.399390000000     0.0411639  
H407     H      0.779270000000     0.778730000000     0.342800000000     0.0411814  
H408     H      0.708660000000     0.709200000000     0.342800000000     0.0412418  
H409     H      0.708900000000     0.528970000000     0.149410000000     0.041561   
H410     H      0.779020000000     0.958960000000     0.149400000000     0.0408666  
H411     H      0.778480000000     0.958420000000     0.092800000000     0.0422146  
H412     H      0.709450000000     0.529510000000     0.092810000000     0.0424714  
H413     H      0.708890000000     0.528950000000     0.342810000000     0.04128    
H414     H      0.779050000000     0.958980000000     0.342800000000     0.0405859  
H415     H      0.778500000000     0.958440000000     0.399400000000     0.0410192  
H416     H      0.709430000000     0.529490000000     0.399410000000     0.0412476  
H417     H      0.792210000000     0.896810000000     0.246100000000     0.0444355  
H418     H      0.692960000000     0.896990000000     0.246110000000     0.0450283  
H419     H      0.692960000000     0.840940000000     0.246100000000     0.0452366  
H420     H      0.792210000000     0.841110000000     0.246100000000     0.0444385  
H421     H      0.794970000000     0.590940000000     0.246100000000     0.0451653  
H422     H      0.695720000000     0.591120000000     0.246110000000     0.0445968  
H423     H      0.695720000000     0.646810000000     0.246100000000     0.044509   
H424     H      0.794970000000     0.646990000000     0.246090000000     0.045262   
H425     H      0.958420000000     0.778480000000     0.149380000000     0.0413186  
H426     H      0.529510000000     0.709450000000     0.149380000000     0.0415624  
H427     H      0.528970000000     0.708900000000     0.092780000000     0.0424422  
H428     H      0.958960000000     0.779020000000     0.092780000000     0.0417545  
H429     H      0.529500000000     0.709440000000     0.342780000000     0.0412654  
H430     H      0.958430000000     0.778490000000     0.342780000000     0.041031   
H431     H      0.958970000000     0.779040000000     0.399380000000     0.0405626  
H432     H      0.528960000000     0.708900000000     0.399380000000     0.0412713  
H433     H      0.529280000000     0.959220000000     0.149390000000     0.0411164  
H434     H      0.958640000000     0.528700000000     0.149390000000     0.0415429  
H435     H      0.959190000000     0.529250000000     0.092790000000     0.0419968  
H436     H      0.528740000000     0.958670000000     0.092790000000     0.0424144  
H437     H      0.529270000000     0.959210000000     0.342790000000     0.040809   
H438     H      0.958660000000     0.528720000000     0.342790000000     0.0412591  
H439     H      0.959200000000     0.529270000000     0.399400000000     0.0407736  
H440     H      0.528730000000     0.958660000000     0.399390000000     0.0412043  
H441     H      0.944260000000     0.896800000000     0.246090000000     0.0443554  
H442     H      0.543510000000     0.897000000000     0.246080000000     0.044861   
H443     H      0.543660000000     0.841130000000     0.246080000000     0.0452086  
H444     H      0.944410000000     0.840930000000     0.246090000000     0.0442786  
H445     H      0.944420000000     0.590930000000     0.246090000000     0.044802   
H446     H      0.543670000000     0.591130000000     0.246080000000     0.044752   
H447     H      0.543520000000     0.647000000000     0.246080000000     0.0445111  
H448     H      0.944270000000     0.646800000000     0.246090000000     0.0450443  
H449     H      0.840940000000     0.692960000000     0.496090000000     0.045136   
H450     H      0.841120000000     0.792210000000     0.996090000000     0.043728   
H451     H      0.896810000000     0.792210000000     0.996090000000     0.0436942  
H452     H      0.896980000000     0.692960000000     0.496090000000     0.0449096  
H453     H      0.590940000000     0.794970000000     0.996090000000     0.04445    
H454     H      0.591120000000     0.695720000000     0.496090000000     0.0444995  
H455     H      0.646810000000     0.695720000000     0.496090000000     0.044417   
H456     H      0.646990000000     0.794970000000     0.996090000000     0.0445525  
H457     H      0.896800000000     0.944260000000     0.496100000000     0.0442674  
H458     H      0.897000000000     0.543510000000     0.996090000000     0.0441634  
H459     H      0.841120000000     0.543660000000     0.996100000000     0.0444967  
H460     H      0.840930000000     0.944410000000     0.496100000000     0.0441649  
H461     H      0.591130000000     0.543670000000     0.996100000000     0.0440619  
H462     H      0.590930000000     0.944420000000     0.496090000000     0.0447221  
H463     H      0.646800000000     0.944270000000     0.496100000000     0.0449359  
H464     H      0.647000000000     0.543520000000     0.996100000000     0.0437811  
H465     H      0.708660000000     0.709200000000     0.649390000000     0.0412545  
H466     H      0.779260000000     0.778730000000     0.649390000000     0.0412316  
H467     H      0.778720000000     0.779270000000     0.592800000000     0.0412045  
H468     H      0.709200000000     0.708660000000     0.592800000000     0.0412208  
H469     H      0.709200000000     0.708660000000     0.899400000000     0.0412143  
H470     H      0.778730000000     0.779270000000     0.899390000000     0.0411792  
H471     H      0.779270000000     0.778730000000     0.842800000000     0.0411899  
H472     H      0.708660000000     0.709200000000     0.842800000000     0.0412532  
H473     H      0.708900000000     0.528970000000     0.649410000000     0.0413054  
H474     H      0.779020000000     0.958960000000     0.649400000000     0.0406113  
H475     H      0.778470000000     0.958420000000     0.592800000000     0.0410473  
H476     H      0.709450000000     0.529510000000     0.592810000000     0.0412908  
H477     H      0.708880000000     0.528950000000     0.842810000000     0.041266   
H478     H      0.779050000000     0.958980000000     0.842800000000     0.0405604  
H479     H      0.778500000000     0.958440000000     0.899400000000     0.0410595  
H480     H      0.709430000000     0.529490000000     0.899410000000     0.0412814  
H481     H      0.792210000000     0.896810000000     0.746100000000     0.0443489  
H482     H      0.692960000000     0.896990000000     0.746110000000     0.0449374  
H483     H      0.692960000000     0.840940000000     0.746100000000     0.0451447  
H484     H      0.792210000000     0.841110000000     0.746100000000     0.0443526  
H485     H      0.794970000000     0.590940000000     0.746100000000     0.0450821  
H486     H      0.695720000000     0.591120000000     0.746110000000     0.0445253  
H487     H      0.695720000000     0.646810000000     0.746100000000     0.044438   
H488     H      0.794970000000     0.646990000000     0.746090000000     0.0451784  
H489     H      0.958420000000     0.778480000000     0.649390000000     0.041045   
H490     H      0.529510000000     0.709450000000     0.649380000000     0.0412892  
H491     H      0.528970000000     0.708900000000     0.592780000000     0.0412664  
H492     H      0.958960000000     0.779020000000     0.592780000000     0.040588   
H493     H      0.529500000000     0.709440000000     0.842780000000     0.0412749  
H494     H      0.958430000000     0.778490000000     0.842780000000     0.0410447  
H495     H      0.958970000000     0.779040000000     0.899380000000     0.0405636  
H496     H      0.528960000000     0.708900000000     0.899380000000     0.0412767  
H497     H      0.529280000000     0.959220000000     0.649390000000     0.0408416  
H498     H      0.958640000000     0.528700000000     0.649390000000     0.041268   
H499     H      0.959190000000     0.529250000000     0.592790000000     0.0408026  
H500     H      0.528740000000     0.958670000000     0.592790000000     0.0412323  
H501     H      0.529270000000     0.959210000000     0.842790000000     0.0407986  
H502     H      0.958660000000     0.528720000000     0.842790000000     0.041249   
H503     H      0.959210000000     0.529270000000     0.899390000000     0.0408079  
H504     H      0.528730000000     0.958660000000     0.899390000000     0.0412339  
H505     H      0.944260000000     0.896800000000     0.746090000000     0.0442794  
H506     H      0.543510000000     0.897000000000     0.746090000000     0.0447739  
H507     H      0.543660000000     0.841130000000     0.746080000000     0.0451389  
H508     H      0.944410000000     0.840930000000     0.746090000000     0.0441966  
H509     H      0.944420000000     0.590930000000     0.746090000000     0.0447244  
H510     H      0.543670000000     0.591130000000     0.746090000000     0.0446652  
H511     H      0.543520000000     0.647000000000     0.746080000000     0.0444571  
H512     H      0.944270000000     0.646800000000     0.746090000000     0.0449623  
Ni1      Ni     0.021390000000     0.993740000000     0.246090000000     0.993126   
Ni2      Ni     0.466540000000     0.994190000000     0.246090000000     0.989677   
Ni3      Ni     0.021390000000     0.243740000000     0.246080000000     0.998552   
Ni4      Ni     0.466540000000     0.244190000000     0.246080000000     0.995264   
Ni5      Ni     0.216550000000     0.994560000000     0.246110000000     0.989585   
Ni6      Ni     0.271380000000     0.993370000000     0.246100000000     0.989649   
Ni7      Ni     0.216550000000     0.243370000000     0.246100000000     0.99497    
Ni8      Ni     0.271380000000     0.244560000000     0.246090000000     0.994738   
Ni9      Ni     0.494190000000     0.466540000000     0.496090000000     0.994598   
Ni10     Ni     0.493740000000     0.021380000000     0.996090000000     0.992667   
Ni11     Ni     0.494560000000     0.216550000000     0.496080000000     0.994875   
Ni12     Ni     0.493370000000     0.271380000000     0.996080000000     0.989303   
Ni13     Ni     0.244190000000     0.466540000000     0.996110000000     0.989441   
Ni14     Ni     0.243740000000     0.021380000000     0.496110000000     0.998346   
Ni15     Ni     0.243370000000     0.216550000000     0.496100000000     0.9951     
Ni16     Ni     0.244560000000     0.271380000000     0.996090000000     0.989154   
Ni17     Ni     0.021390000000     0.993740000000     0.746090000000     0.993056   
Ni18     Ni     0.466540000000     0.994190000000     0.746090000000     0.989596   
Ni19     Ni     0.021390000000     0.243740000000     0.746080000000     0.998477   
Ni20     Ni     0.466540000000     0.244190000000     0.746080000000     0.995135   
Ni21     Ni     0.216550000000     0.994560000000     0.746110000000     0.989461   
Ni22     Ni     0.271380000000     0.993370000000     0.746100000000     0.98953    
Ni23     Ni     0.216550000000     0.243370000000     0.746100000000     0.994953   
Ni24     Ni     0.271380000000     0.244560000000     0.746090000000     0.994651   
Ni25     Ni     0.494190000000     0.466540000000     0.996090000000     0.989058   
Ni26     Ni     0.493740000000     0.021380000000     0.496090000000     0.998193   
Ni27     Ni     0.494560000000     0.216550000000     0.996080000000     0.989304   
Ni28     Ni     0.493370000000     0.271380000000     0.496080000000     0.99464    
Ni29     Ni     0.244190000000     0.466540000000     0.496100000000     0.994964   
Ni30     Ni     0.243740000000     0.021380000000     0.996110000000     0.992835   
Ni31     Ni     0.243370000000     0.216550000000     0.996100000000     0.989379   
Ni32     Ni     0.244560000000     0.271380000000     0.496100000000     0.994638   
Ni33     Ni     0.021390000000     0.493740000000     0.246090000000     0.99859    
Ni34     Ni     0.466540000000     0.494190000000     0.246090000000     0.995017   
Ni35     Ni     0.021390000000     0.743740000000     0.246080000000     0.99856    
Ni36     Ni     0.466540000000     0.744190000000     0.246080000000     0.995263   
Ni37     Ni     0.216550000000     0.494560000000     0.246110000000     0.994968   
Ni38     Ni     0.271380000000     0.493370000000     0.246100000000     0.994909   
Ni39     Ni     0.216550000000     0.743370000000     0.246100000000     0.995175   
Ni40     Ni     0.271380000000     0.744560000000     0.246090000000     0.994699   
Ni41     Ni     0.494190000000     0.966540000000     0.496090000000     0.98801    
Ni42     Ni     0.493740000000     0.521380000000     0.996090000000     0.989124   
Ni43     Ni     0.494560000000     0.716550000000     0.496080000000     0.994839   
Ni44     Ni     0.493370000000     0.771380000000     0.996080000000     0.989336   
Ni45     Ni     0.244190000000     0.966540000000     0.996110000000     0.982928   
Ni46     Ni     0.243740000000     0.521380000000     0.496110000000     0.994791   
Ni47     Ni     0.243370000000     0.716550000000     0.496100000000     0.995      
Ni48     Ni     0.244560000000     0.771380000000     0.996090000000     0.989182   
Ni49     Ni     0.021390000000     0.493740000000     0.746090000000     0.99852    
Ni50     Ni     0.466540000000     0.494190000000     0.746090000000     0.994937   
Ni51     Ni     0.021390000000     0.743740000000     0.746080000000     0.998485   
Ni52     Ni     0.466540000000     0.744190000000     0.746080000000     0.995133   
Ni53     Ni     0.216550000000     0.494560000000     0.746110000000     0.994845   
Ni54     Ni     0.271380000000     0.493370000000     0.746100000000     0.994791   
Ni55     Ni     0.216550000000     0.743370000000     0.746100000000     0.995158   
Ni56     Ni     0.271380000000     0.744560000000     0.746090000000     0.994613   
Ni57     Ni     0.494190000000     0.966540000000     0.996090000000     0.982498   
Ni58     Ni     0.493740000000     0.521380000000     0.496090000000     0.994659   
Ni59     Ni     0.494560000000     0.716550000000     0.996080000000     0.989265   
Ni60     Ni     0.493370000000     0.771380000000     0.496080000000     0.994672   
Ni61     Ni     0.244190000000     0.966540000000     0.496100000000     0.988425   
Ni62     Ni     0.243740000000     0.521380000000     0.996110000000     0.98927    
Ni63     Ni     0.243370000000     0.716550000000     0.996100000000     0.989275   
Ni64     Ni     0.244560000000     0.771380000000     0.496100000000     0.994664   
Ni65     Ni     0.521390000000     0.993740000000     0.246090000000     0.989534   
Ni66     Ni     0.966540000000     0.994190000000     0.246090000000     0.983135   
Ni67     Ni     0.521390000000     0.243740000000     0.246080000000     0.995      
Ni68     Ni     0.966540000000     0.244190000000     0.246080000000     0.988655   
Ni69     Ni     0.716550000000     0.994560000000     0.246110000000     0.989447   
Ni70     Ni     0.771380000000     0.993370000000     0.246100000000     0.989713   
Ni71     Ni     0.716550000000     0.243370000000     0.246100000000     0.994899   
Ni72     Ni     0.771380000000     0.244560000000     0.246090000000     0.994803   
Ni73     Ni     0.994190000000     0.466540000000     0.496090000000     0.989213   
Ni74     Ni     0.993740000000     0.021380000000     0.996090000000     0.987402   
Ni75     Ni     0.994560000000     0.216550000000     0.496080000000     0.989445   
Ni76     Ni     0.993370000000     0.271380000000     0.996080000000     0.984045   
Ni77     Ni     0.744190000000     0.466540000000     0.996110000000     0.989225   
Ni78     Ni     0.743740000000     0.021380000000     0.496110000000     0.99836    
Ni79     Ni     0.743370000000     0.216550000000     0.496100000000     0.995107   
Ni80     Ni     0.744560000000     0.271380000000     0.996090000000     0.989144   
Ni81     Ni     0.521390000000     0.993740000000     0.746090000000     0.989521   
Ni82     Ni     0.966540000000     0.994190000000     0.746090000000     0.983104   
Ni83     Ni     0.521390000000     0.243740000000     0.746080000000     0.994955   
Ni84     Ni     0.966540000000     0.244190000000     0.746080000000     0.98862    
Ni85     Ni     0.716550000000     0.994560000000     0.746110000000     0.989415   
Ni86     Ni     0.771380000000     0.993370000000     0.746100000000     0.989637   
Ni87     Ni     0.716550000000     0.243370000000     0.746100000000     0.994866   
Ni88     Ni     0.771380000000     0.244560000000     0.746090000000     0.994725   
Ni89     Ni     0.994190000000     0.466540000000     0.996090000000     0.98368    
Ni90     Ni     0.993740000000     0.021380000000     0.496090000000     0.992925   
Ni91     Ni     0.994560000000     0.216550000000     0.996080000000     0.983915   
Ni92     Ni     0.993370000000     0.271380000000     0.496080000000     0.989575   
Ni93     Ni     0.744190000000     0.466540000000     0.496100000000     0.994968   
Ni94     Ni     0.743740000000     0.021380000000     0.996110000000     0.99287    
Ni95     Ni     0.743370000000     0.216550000000     0.996100000000     0.989373   
Ni96     Ni     0.744560000000     0.271380000000     0.496100000000     0.994639   
Ni97     Ni     0.521390000000     0.493740000000     0.246090000000     0.995005   
Ni98     Ni     0.966540000000     0.494190000000     0.246090000000     0.988448   
Ni99     Ni     0.521390000000     0.743740000000     0.246080000000     0.995005   
Ni100    Ni     0.966540000000     0.744190000000     0.246080000000     0.988651   
Ni101    Ni     0.716550000000     0.494560000000     0.246110000000     0.994833   
Ni102    Ni     0.771380000000     0.493370000000     0.246100000000     0.994971   
Ni103    Ni     0.716550000000     0.743370000000     0.246100000000     0.995104   
Ni104    Ni     0.771380000000     0.744560000000     0.246090000000     0.994764   
Ni105    Ni     0.994190000000     0.966540000000     0.496090000000     0.982653   
Ni106    Ni     0.993740000000     0.521380000000     0.996090000000     0.983851   
Ni107    Ni     0.994560000000     0.716550000000     0.496080000000     0.989406   
Ni108    Ni     0.993370000000     0.771380000000     0.996080000000     0.984081   
Ni109    Ni     0.744190000000     0.966540000000     0.996110000000     0.98271    
Ni110    Ni     0.743740000000     0.521380000000     0.496110000000     0.994802   
Ni111    Ni     0.743370000000     0.716550000000     0.496100000000     0.995006   
Ni112    Ni     0.744560000000     0.771380000000     0.996090000000     0.989172   
Ni113    Ni     0.521390000000     0.493740000000     0.746090000000     0.994993   
Ni114    Ni     0.966540000000     0.494190000000     0.746090000000     0.988417   
Ni115    Ni     0.521390000000     0.743740000000     0.746080000000     0.99496    
Ni116    Ni     0.966540000000     0.744190000000     0.746080000000     0.988616   
Ni117    Ni     0.716550000000     0.494560000000     0.746110000000     0.994802   
Ni118    Ni     0.771380000000     0.493370000000     0.746100000000     0.994895   
Ni119    Ni     0.716550000000     0.743370000000     0.746100000000     0.995071   
Ni120    Ni     0.771380000000     0.744560000000     0.746090000000     0.994686   
Ni121    Ni     0.994190000000     0.966540000000     0.996090000000     0.977147   
Ni122    Ni     0.993740000000     0.521380000000     0.496090000000     0.989384   
Ni123    Ni     0.994560000000     0.716550000000     0.996080000000     0.983873   
Ni124    Ni     0.993370000000     0.771380000000     0.496080000000     0.98961    
Ni125    Ni     0.744190000000     0.966540000000     0.496100000000     0.988425   
Ni126    Ni     0.743740000000     0.521380000000     0.996110000000     0.989302   
Ni127    Ni     0.743370000000     0.716550000000     0.996100000000     0.989269   
Ni128    Ni     0.744560000000     0.771380000000     0.496100000000     0.994665   
O1       O      0.019580000000     0.493530000000     0.290250000000    -0.429128   
O2       O      0.019580000000     0.993530000000     0.201930000000    -0.429786   
O3       O      0.019640000000     0.037810000000     0.246090000000    -0.424606   
O4       O      0.019450000000     0.449880000000     0.246090000000    -0.431594   
O5       O      0.468290000000     0.450120000000     0.246090000000    -0.433944   
O6       O      0.468480000000     0.038050000000     0.246090000000    -0.431865   
O7       O      0.468350000000     0.494400000000     0.201940000000    -0.433898   
O8       O      0.468350000000     0.994400000000     0.290250000000    -0.435386   
O9       O      0.019580000000     0.243530000000     0.290240000000    -0.429136   
O10      O      0.019580000000     0.243530000000     0.201930000000    -0.42892    
O11      O      0.019630000000     0.287810000000     0.246080000000    -0.428931   
O12      O      0.019460000000     0.199880000000     0.246080000000    -0.431665   
O13      O      0.468300000000     0.200120000000     0.246080000000    -0.433692   
O14      O      0.468470000000     0.288040000000     0.246080000000    -0.436645   
O15      O      0.468350000000     0.244400000000     0.201930000000    -0.433877   
O16      O      0.468350000000     0.244400000000     0.290240000000    -0.434008   
O17      O      0.218360000000     0.494740000000     0.201950000000    -0.433809   
O18      O      0.218360000000     0.994740000000     0.290260000000    -0.435361   
O19      O      0.219220000000     0.038370000000     0.246110000000    -0.432204   
O20      O      0.217550000000     0.450450000000     0.246110000000    -0.433255   
O21      O      0.268700000000     0.449560000000     0.246110000000    -0.436884   
O22      O      0.270380000000     0.037470000000     0.246100000000    -0.428621   
O23      O      0.269570000000     0.493190000000     0.290260000000    -0.434053   
O24      O      0.269570000000     0.993180000000     0.201950000000    -0.434816   
O25      O      0.218360000000     0.243190000000     0.290250000000    -0.433976   
O26      O      0.218360000000     0.243190000000     0.201940000000    -0.433813   
O27      O      0.219220000000     0.199560000000     0.246100000000    -0.436756   
O28      O      0.217550000000     0.287480000000     0.246100000000    -0.433007   
O29      O      0.268710000000     0.288370000000     0.246090000000    -0.436851   
O30      O      0.270380000000     0.200450000000     0.246090000000    -0.433005   
O31      O      0.269570000000     0.244740000000     0.201940000000    -0.433856   
O32      O      0.269570000000     0.244740000000     0.290250000000    -0.434032   
O33      O      0.994400000000     0.468350000000     0.451930000000    -0.435352   
O34      O      0.494400000000     0.468350000000     0.040250000000    -0.428759   
O35      O      0.450120000000     0.468290000000     0.496090000000    -0.433953   
O36      O      0.038050000000     0.468480000000     0.996090000000    -0.432101   
O37      O      0.037810000000     0.019640000000     0.496090000000    -0.424553   
O38      O      0.449880000000     0.019450000000     0.996090000000    -0.431808   
O39      O      0.993520000000     0.019580000000     0.040250000000    -0.424756   
O40      O      0.493530000000     0.019580000000     0.451930000000    -0.428991   
O41      O      0.994740000000     0.218360000000     0.451930000000    -0.435365   
O42      O      0.494740000000     0.218360000000     0.040240000000    -0.428751   
O43      O      0.450450000000     0.217550000000     0.496080000000    -0.433219   
O44      O      0.038370000000     0.219220000000     0.996080000000    -0.43247    
O45      O      0.037470000000     0.270380000000     0.496080000000    -0.428686   
O46      O      0.449560000000     0.268700000000     0.996080000000    -0.437249   
O47      O      0.993190000000     0.269570000000     0.040240000000    -0.429681   
O48      O      0.493190000000     0.269570000000     0.451930000000    -0.434127   
O49      O      0.244390000000     0.468350000000     0.040260000000    -0.42891    
O50      O      0.244400000000     0.468350000000     0.451950000000    -0.434074   
O51      O      0.288040000000     0.468470000000     0.996100000000    -0.436933   
O52      O      0.200120000000     0.468290000000     0.496100000000    -0.43355    
O53      O      0.199880000000     0.019460000000     0.996110000000    -0.431924   
O54      O      0.287810000000     0.019630000000     0.496100000000    -0.428956   
O55      O      0.243530000000     0.019580000000     0.451950000000    -0.429003   
O56      O      0.243530000000     0.019580000000     0.040260000000    -0.423958   
O57      O      0.243190000000     0.218360000000     0.451940000000    -0.433983   
O58      O      0.243190000000     0.218360000000     0.040250000000    -0.428789   
O59      O      0.199560000000     0.219220000000     0.496100000000    -0.436844   
O60      O      0.287480000000     0.217550000000     0.996090000000    -0.433371   
O61      O      0.288370000000     0.268700000000     0.496100000000    -0.437044   
O62      O      0.200450000000     0.270380000000     0.996100000000    -0.433303   
O63      O      0.244740000000     0.269570000000     0.040250000000    -0.428823   
O64      O      0.244740000000     0.269570000000     0.451940000000    -0.433925   
O65      O      0.019580000000     0.493530000000     0.790250000000    -0.42902    
O66      O      0.019580000000     0.993530000000     0.701930000000    -0.429902   
O67      O      0.019640000000     0.037810000000     0.746090000000    -0.424634   
O68      O      0.019450000000     0.449880000000     0.746090000000    -0.431619   
O69      O      0.468290000000     0.450120000000     0.746090000000    -0.43399    
O70      O      0.468480000000     0.038050000000     0.746090000000    -0.431902   
O71      O      0.468350000000     0.494400000000     0.701940000000    -0.434031   
O72      O      0.468350000000     0.994400000000     0.790250000000    -0.435285   
O73      O      0.019580000000     0.243530000000     0.790240000000    -0.429      
O74      O      0.019580000000     0.243530000000     0.701930000000    -0.429041   
O75      O      0.019630000000     0.287810000000     0.746080000000    -0.428964   
O76      O      0.019460000000     0.199880000000     0.746080000000    -0.431687   
O77      O      0.468290000000     0.200120000000     0.746090000000    -0.433561   
O78      O      0.468470000000     0.288040000000     0.746080000000    -0.436668   
O79      O      0.468350000000     0.244400000000     0.701930000000    -0.434017   
O80      O      0.468350000000     0.244400000000     0.790240000000    -0.433867   
O81      O      0.218350000000     0.494740000000     0.701950000000    -0.433768   
O82      O      0.218360000000     0.994740000000     0.790260000000    -0.435411   
O83      O      0.219220000000     0.038370000000     0.746110000000    -0.432226   
O84      O      0.217550000000     0.450450000000     0.746110000000    -0.433136   
O85      O      0.268710000000     0.449560000000     0.746100000000    -0.436839   
O86      O      0.270380000000     0.037470000000     0.746100000000    -0.428659   
O87      O      0.269570000000     0.493190000000     0.790260000000    -0.433929   
O88      O      0.269570000000     0.993180000000     0.701950000000    -0.434865   
O89      O      0.218360000000     0.243190000000     0.790250000000    -0.434039   
O90      O      0.218360000000     0.243190000000     0.701940000000    -0.433955   
O91      O      0.219220000000     0.199560000000     0.746100000000    -0.436791   
O92      O      0.217550000000     0.287480000000     0.746100000000    -0.433061   
O93      O      0.268710000000     0.288370000000     0.746090000000    -0.436887   
O94      O      0.270380000000     0.200450000000     0.746090000000    -0.433045   
O95      O      0.269570000000     0.244740000000     0.701940000000    -0.433991   
O96      O      0.269570000000     0.244740000000     0.790250000000    -0.433903   
O97      O      0.994400000000     0.468350000000     0.951930000000    -0.434349   
O98      O      0.494400000000     0.468350000000     0.540250000000    -0.43394    
O99      O      0.450120000000     0.468290000000     0.996090000000    -0.43418    
O100     O      0.038050000000     0.468480000000     0.496090000000    -0.431869   
O101     O      0.037810000000     0.019640000000     0.996090000000    -0.424795   
O102     O      0.449880000000     0.019450000000     0.496090000000    -0.431553   
O103     O      0.993530000000     0.019580000000     0.540250000000    -0.429918   
O104     O      0.493530000000     0.019580000000     0.951930000000    -0.427997   
O105     O      0.994740000000     0.218360000000     0.951930000000    -0.434274   
O106     O      0.494740000000     0.218360000000     0.540240000000    -0.433928   
O107     O      0.450450000000     0.217550000000     0.996080000000    -0.433443   
O108     O      0.038370000000     0.219220000000     0.496080000000    -0.432246   
O109     O      0.037470000000     0.270380000000     0.996080000000    -0.428898   
O110     O      0.449560000000     0.268700000000     0.496080000000    -0.436982   
O111     O      0.993180000000     0.269570000000     0.540240000000    -0.434857   
O112     O      0.493190000000     0.269570000000     0.951930000000    -0.433052   
O113     O      0.244390000000     0.468350000000     0.540260000000    -0.433974   
O114     O      0.244400000000     0.468350000000     0.951950000000    -0.432965   
O115     O      0.288040000000     0.468470000000     0.496100000000    -0.436674   
O116     O      0.200120000000     0.468290000000     0.996110000000    -0.433774   
O117     O      0.199880000000     0.019460000000     0.496110000000    -0.431675   
O118     O      0.287810000000     0.019630000000     0.996110000000    -0.429212   
O119     O      0.243530000000     0.019580000000     0.951950000000    -0.428008   
O120     O      0.243530000000     0.019580000000     0.540260000000    -0.429096   
O121     O      0.243190000000     0.218360000000     0.951940000000    -0.432968   
O122     O      0.243190000000     0.218360000000     0.540250000000    -0.433988   
O123     O      0.199560000000     0.219220000000     0.996100000000    -0.437045   
O124     O      0.287470000000     0.217550000000     0.496100000000    -0.433211   
O125     O      0.288370000000     0.268700000000     0.996090000000    -0.437309   
O126     O      0.200450000000     0.270380000000     0.496100000000    -0.433075   
O127     O      0.244740000000     0.269570000000     0.540250000000    -0.434102   
O128     O      0.244740000000     0.269570000000     0.951940000000    -0.433041   
O129     O      0.019580000000     0.993530000000     0.290250000000    -0.430048   
O130     O      0.019580000000     0.493530000000     0.201930000000    -0.428871   
O131     O      0.019640000000     0.537800000000     0.246090000000    -0.429232   
O132     O      0.019450000000     0.949880000000     0.246090000000    -0.430691   
O133     O      0.468290000000     0.950120000000     0.246090000000    -0.433123   
O134     O      0.468480000000     0.538050000000     0.246090000000    -0.436329   
O135     O      0.468350000000     0.994400000000     0.201940000000    -0.435283   
O136     O      0.468350000000     0.494400000000     0.290250000000    -0.433995   
O137     O      0.019580000000     0.743530000000     0.290240000000    -0.429144   
O138     O      0.019580000000     0.743530000000     0.201930000000    -0.428922   
O139     O      0.019630000000     0.787810000000     0.246080000000    -0.428917   
O140     O      0.019460000000     0.699880000000     0.246080000000    -0.431703   
O141     O      0.468300000000     0.700120000000     0.246080000000    -0.433735   
O142     O      0.468470000000     0.788040000000     0.246080000000    -0.436633   
O143     O      0.468350000000     0.744400000000     0.201930000000    -0.433891   
O144     O      0.468350000000     0.744400000000     0.290240000000    -0.434025   
O145     O      0.218360000000     0.994740000000     0.201950000000    -0.435196   
O146     O      0.218360000000     0.494740000000     0.290260000000    -0.433968   
O147     O      0.219220000000     0.538370000000     0.246110000000    -0.436684   
O148     O      0.217550000000     0.950450000000     0.246110000000    -0.432435   
O149     O      0.268700000000     0.949560000000     0.246110000000    -0.435985   
O150     O      0.270380000000     0.537470000000     0.246100000000    -0.433191   
O151     O      0.269570000000     0.993190000000     0.290260000000    -0.434977   
O152     O      0.269570000000     0.493190000000     0.201950000000    -0.433895   
O153     O      0.218360000000     0.743190000000     0.290250000000    -0.434005   
O154     O      0.218360000000     0.743190000000     0.201940000000    -0.433848   
O155     O      0.219220000000     0.699560000000     0.246100000000    -0.436829   
O156     O      0.217550000000     0.787470000000     0.246100000000    -0.43306    
O157     O      0.268710000000     0.788370000000     0.246090000000    -0.436805   
O158     O      0.270380000000     0.700450000000     0.246090000000    -0.433052   
O159     O      0.269570000000     0.744740000000     0.201940000000    -0.43387    
O160     O      0.269570000000     0.744740000000     0.290250000000    -0.434046   
O161     O      0.994400000000     0.968350000000     0.451930000000    -0.433811   
O162     O      0.494400000000     0.968350000000     0.040250000000    -0.427232   
O163     O      0.450120000000     0.968290000000     0.496090000000    -0.432511   
O164     O      0.038050000000     0.968470000000     0.996090000000    -0.43039    
O165     O      0.037810000000     0.519640000000     0.496090000000    -0.429434   
O166     O      0.449880000000     0.519450000000     0.996090000000    -0.436486   
O167     O      0.993520000000     0.519580000000     0.040250000000    -0.429564   
O168     O      0.493530000000     0.519580000000     0.451930000000    -0.433841   
O169     O      0.994740000000     0.718360000000     0.451930000000    -0.435509   
O170     O      0.494740000000     0.718360000000     0.040240000000    -0.428805   
O171     O      0.450450000000     0.717550000000     0.496080000000    -0.433354   
O172     O      0.038370000000     0.719220000000     0.996080000000    -0.432509   
O173     O      0.037470000000     0.770380000000     0.496080000000    -0.42867    
O174     O      0.449560000000     0.768700000000     0.996080000000    -0.437149   
O175     O      0.993190000000     0.769570000000     0.040240000000    -0.429672   
O176     O      0.493190000000     0.769570000000     0.451930000000    -0.434028   
O177     O      0.244390000000     0.968350000000     0.040260000000    -0.427387   
O178     O      0.244400000000     0.968350000000     0.451950000000    -0.432541   
O179     O      0.288040000000     0.968470000000     0.996100000000    -0.435382   
O180     O      0.200120000000     0.968290000000     0.496100000000    -0.432114   
O181     O      0.199880000000     0.519460000000     0.996110000000    -0.436592   
O182     O      0.287810000000     0.519630000000     0.496100000000    -0.433794   
O183     O      0.243530000000     0.519580000000     0.451950000000    -0.433847   
O184     O      0.243530000000     0.519580000000     0.040260000000    -0.428769   
O185     O      0.243190000000     0.718360000000     0.451940000000    -0.434032   
O186     O      0.243190000000     0.718360000000     0.040250000000    -0.42892    
O187     O      0.199560000000     0.719220000000     0.496100000000    -0.43687    
O188     O      0.287480000000     0.717550000000     0.996090000000    -0.433345   
O189     O      0.288370000000     0.768710000000     0.496100000000    -0.436864   
O190     O      0.200450000000     0.770380000000     0.996100000000    -0.433286   
O191     O      0.244740000000     0.769570000000     0.040250000000    -0.428719   
O192     O      0.244740000000     0.769570000000     0.451940000000    -0.433911   
O193     O      0.019580000000     0.993530000000     0.790250000000    -0.429939   
O194     O      0.019580000000     0.493530000000     0.701930000000    -0.428986   
O195     O      0.019640000000     0.537800000000     0.746090000000    -0.429263   
O196     O      0.019450000000     0.949880000000     0.746090000000    -0.430716   
O197     O      0.468290000000     0.950120000000     0.746090000000    -0.433168   
O198     O      0.468480000000     0.538050000000     0.746090000000    -0.436369   
O199     O      0.468350000000     0.994400000000     0.701940000000    -0.435418   
O200     O      0.468350000000     0.494400000000     0.790250000000    -0.433896   
O201     O      0.019580000000     0.743530000000     0.790240000000    -0.429009   
O202     O      0.019580000000     0.743530000000     0.701930000000    -0.429043   
O203     O      0.019630000000     0.787810000000     0.746080000000    -0.42895    
O204     O      0.019460000000     0.699880000000     0.746080000000    -0.431725   
O205     O      0.468290000000     0.700120000000     0.746090000000    -0.433605   
O206     O      0.468470000000     0.788040000000     0.746080000000    -0.436657   
O207     O      0.468350000000     0.744400000000     0.701930000000    -0.434031   
O208     O      0.468350000000     0.744400000000     0.790240000000    -0.433884   
O209     O      0.218350000000     0.994740000000     0.701950000000    -0.435157   
O210     O      0.218360000000     0.494740000000     0.790260000000    -0.434018   
O211     O      0.219220000000     0.538370000000     0.746110000000    -0.436709   
O212     O      0.217550000000     0.950450000000     0.746110000000    -0.432315   
O213     O      0.268710000000     0.949560000000     0.746100000000    -0.43594    
O214     O      0.270380000000     0.537470000000     0.746100000000    -0.433232   
O215     O      0.269570000000     0.993190000000     0.790260000000    -0.434852   
O216     O      0.269570000000     0.493190000000     0.701950000000    -0.433943   
O217     O      0.218360000000     0.743190000000     0.790250000000    -0.434068   
O218     O      0.218360000000     0.743190000000     0.701940000000    -0.433991   
O219     O      0.219220000000     0.699560000000     0.746100000000    -0.436864   
O220     O      0.217550000000     0.787470000000     0.746100000000    -0.433115   
O221     O      0.268710000000     0.788370000000     0.746090000000    -0.436841   
O222     O      0.270380000000     0.700450000000     0.746090000000    -0.433092   
O223     O      0.269570000000     0.744740000000     0.701940000000    -0.434005   
O224     O      0.269570000000     0.744740000000     0.790250000000    -0.433917   
O225     O      0.994400000000     0.968350000000     0.951930000000    -0.432813   
O226     O      0.494400000000     0.968350000000     0.540250000000    -0.4324     
O227     O      0.450120000000     0.968290000000     0.996090000000    -0.432742   
O228     O      0.038050000000     0.968470000000     0.496090000000    -0.430155   
O229     O      0.037810000000     0.519640000000     0.996090000000    -0.429666   
O230     O      0.449880000000     0.519450000000     0.496090000000    -0.436242   
O231     O      0.993530000000     0.519580000000     0.540250000000    -0.434757   
O232     O      0.493530000000     0.519580000000     0.951930000000    -0.432837   
O233     O      0.994740000000     0.718360000000     0.951930000000    -0.434417   
O234     O      0.494740000000     0.718360000000     0.540240000000    -0.433988   
O235     O      0.450450000000     0.717550000000     0.996080000000    -0.433577   
O236     O      0.038370000000     0.719220000000     0.496080000000    -0.432285   
O237     O      0.037470000000     0.770380000000     0.996080000000    -0.428882   
O238     O      0.449560000000     0.768700000000     0.496080000000    -0.436883   
O239     O      0.993180000000     0.769570000000     0.540240000000    -0.434849   
O240     O      0.493190000000     0.769570000000     0.951930000000    -0.432954   
O241     O      0.244390000000     0.968350000000     0.540260000000    -0.432438   
O242     O      0.244400000000     0.968350000000     0.951950000000    -0.431438   
O243     O      0.288040000000     0.968470000000     0.496100000000    -0.43512    
O244     O      0.200120000000     0.968290000000     0.996110000000    -0.432342   
O245     O      0.199880000000     0.519460000000     0.496110000000    -0.436353   
O246     O      0.287810000000     0.519630000000     0.996110000000    -0.434039   
O247     O      0.243530000000     0.519580000000     0.951950000000    -0.432842   
O248     O      0.243530000000     0.519580000000     0.540260000000    -0.433938   
O249     O      0.243190000000     0.718360000000     0.951940000000    -0.433017   
O250     O      0.243190000000     0.718360000000     0.540250000000    -0.434124   
O251     O      0.199560000000     0.719220000000     0.996100000000    -0.437071   
O252     O      0.287470000000     0.717550000000     0.496100000000    -0.433185   
O253     O      0.288370000000     0.768710000000     0.996090000000    -0.43713    
O254     O      0.200450000000     0.770380000000     0.496100000000    -0.433058   
O255     O      0.244740000000     0.769570000000     0.540250000000    -0.433999   
O256     O      0.244740000000     0.769570000000     0.951940000000    -0.433027   
O257     O      0.519580000000     0.493530000000     0.290250000000    -0.433884   
O258     O      0.519580000000     0.993530000000     0.201930000000    -0.434609   
O259     O      0.519640000000     0.037810000000     0.246090000000    -0.429407   
O260     O      0.519450000000     0.449880000000     0.246090000000    -0.436269   
O261     O      0.968290000000     0.450120000000     0.246090000000    -0.432511   
O262     O      0.968480000000     0.038050000000     0.246090000000    -0.430324   
O263     O      0.968350000000     0.494400000000     0.201940000000    -0.43236    
O264     O      0.968350000000     0.994400000000     0.290250000000    -0.43376    
O265     O      0.519580000000     0.243530000000     0.290240000000    -0.43389    
O266     O      0.519580000000     0.243530000000     0.201930000000    -0.433749   
O267     O      0.519630000000     0.287810000000     0.246080000000    -0.433766   
O268     O      0.519460000000     0.199880000000     0.246080000000    -0.436406   
O269     O      0.968290000000     0.200120000000     0.246080000000    -0.432082   
O270     O      0.968470000000     0.288040000000     0.246080000000    -0.43508    
O271     O      0.968350000000     0.244400000000     0.201930000000    -0.432334   
O272     O      0.968350000000     0.244400000000     0.290240000000    -0.432375   
O273     O      0.718360000000     0.494740000000     0.201950000000    -0.433853   
O274     O      0.718360000000     0.994740000000     0.290260000000    -0.435496   
O275     O      0.719220000000     0.038370000000     0.246110000000    -0.432229   
O276     O      0.717550000000     0.450450000000     0.246110000000    -0.433132   
O277     O      0.768710000000     0.449560000000     0.246110000000    -0.436803   
O278     O      0.770380000000     0.037470000000     0.246100000000    -0.428609   
O279     O      0.769570000000     0.493190000000     0.290260000000    -0.433949   
O280     O      0.769570000000     0.993180000000     0.201950000000    -0.434803   
O281     O      0.718360000000     0.243190000000     0.290250000000    -0.434118   
O282     O      0.718360000000     0.243190000000     0.201940000000    -0.433865   
O283     O      0.719220000000     0.199560000000     0.246100000000    -0.436783   
O284     O      0.717550000000     0.287480000000     0.246100000000    -0.433056   
O285     O      0.768710000000     0.288370000000     0.246090000000    -0.436847   
O286     O      0.770380000000     0.200450000000     0.246090000000    -0.432992   
O287     O      0.769570000000     0.244740000000     0.201940000000    -0.433849   
O288     O      0.769570000000     0.244740000000     0.290250000000    -0.433932   
O289     O      0.494400000000     0.468350000000     0.451930000000    -0.433963   
O290     O      0.994400000000     0.468350000000     0.040250000000    -0.430139   
O291     O      0.950120000000     0.468290000000     0.496090000000    -0.433132   
O292     O      0.538050000000     0.468480000000     0.996090000000    -0.436588   
O293     O      0.537810000000     0.019640000000     0.496090000000    -0.429131   
O294     O      0.949880000000     0.019450000000     0.996090000000    -0.43093    
O295     O      0.493530000000     0.019580000000     0.040250000000    -0.423821   
O296     O      0.993530000000     0.019580000000     0.451930000000    -0.429934   
O297     O      0.494740000000     0.218360000000     0.451930000000    -0.433976   
O298     O      0.994740000000     0.218360000000     0.040240000000    -0.430139   
O299     O      0.950450000000     0.217550000000     0.496080000000    -0.432401   
O300     O      0.538370000000     0.219220000000     0.996080000000    -0.436978   
O301     O      0.537480000000     0.270380000000     0.496080000000    -0.433214   
O302     O      0.949560000000     0.268700000000     0.996080000000    -0.436378   
O303     O      0.493180000000     0.269570000000     0.040240000000    -0.428752   
O304     O      0.993190000000     0.269570000000     0.451930000000    -0.435076   
O305     O      0.744390000000     0.468350000000     0.040260000000    -0.428893   
O306     O      0.744400000000     0.468350000000     0.451950000000    -0.434094   
O307     O      0.788050000000     0.468470000000     0.996100000000    -0.436856   
O308     O      0.700120000000     0.468290000000     0.496100000000    -0.433594   
O309     O      0.699880000000     0.019460000000     0.996110000000    -0.43196    
O310     O      0.787810000000     0.019630000000     0.496100000000    -0.428963   
O311     O      0.743530000000     0.019580000000     0.451950000000    -0.429012   
O312     O      0.743530000000     0.019580000000     0.040260000000    -0.423956   
O313     O      0.743190000000     0.218360000000     0.451940000000    -0.433993   
O314     O      0.743190000000     0.218360000000     0.040250000000    -0.428789   
O315     O      0.699560000000     0.219220000000     0.496100000000    -0.43688    
O316     O      0.787480000000     0.217550000000     0.996090000000    -0.433362   
O317     O      0.788370000000     0.268700000000     0.496100000000    -0.437032   
O318     O      0.700450000000     0.270380000000     0.996100000000    -0.433346   
O319     O      0.744740000000     0.269570000000     0.040250000000    -0.428832   
O320     O      0.744740000000     0.269570000000     0.451940000000    -0.433945   
O321     O      0.519580000000     0.493530000000     0.790250000000    -0.43397    
O322     O      0.519580000000     0.993530000000     0.701930000000    -0.434753   
O323     O      0.519640000000     0.037810000000     0.746090000000    -0.429457   
O324     O      0.519450000000     0.449880000000     0.746090000000    -0.43631    
O325     O      0.968290000000     0.450120000000     0.746090000000    -0.432558   
O326     O      0.968480000000     0.038050000000     0.746090000000    -0.43036    
O327     O      0.968350000000     0.494400000000     0.701940000000    -0.432499   
O328     O      0.968350000000     0.994400000000     0.790250000000    -0.433846   
O329     O      0.519580000000     0.243530000000     0.790240000000    -0.433947   
O330     O      0.519580000000     0.243530000000     0.701930000000    -0.433892   
O331     O      0.519630000000     0.287810000000     0.746080000000    -0.433813   
O332     O      0.519460000000     0.199880000000     0.746080000000    -0.436373   
O333     O      0.968290000000     0.200120000000     0.746090000000    -0.43213    
O334     O      0.968470000000     0.288040000000     0.746080000000    -0.435116   
O335     O      0.968350000000     0.244400000000     0.701930000000    -0.432487   
O336     O      0.968350000000     0.244400000000     0.790240000000    -0.432424   
O337     O      0.718350000000     0.494740000000     0.701950000000    -0.433821   
O338     O      0.718360000000     0.994740000000     0.790260000000    -0.435467   
O339     O      0.719220000000     0.038370000000     0.746110000000    -0.432268   
O340     O      0.717550000000     0.450450000000     0.746110000000    -0.433336   
O341     O      0.768700000000     0.449560000000     0.746100000000    -0.436912   
O342     O      0.770380000000     0.037470000000     0.746100000000    -0.428656   
O343     O      0.769570000000     0.493190000000     0.790260000000    -0.433936   
O344     O      0.769570000000     0.993180000000     0.701950000000    -0.434863   
O345     O      0.718360000000     0.243190000000     0.790250000000    -0.434082   
O346     O      0.718350000000     0.243190000000     0.701940000000    -0.43383    
O347     O      0.719220000000     0.199560000000     0.746100000000    -0.436825   
O348     O      0.717550000000     0.287480000000     0.746100000000    -0.433261   
O349     O      0.768700000000     0.288370000000     0.746090000000    -0.436955   
O350     O      0.770380000000     0.200450000000     0.746090000000    -0.433042   
O351     O      0.769570000000     0.244740000000     0.701940000000    -0.433915   
O352     O      0.769570000000     0.244740000000     0.790250000000    -0.433896   
O353     O      0.494400000000     0.468350000000     0.951930000000    -0.432959   
O354     O      0.994400000000     0.468350000000     0.540250000000    -0.435332   
O355     O      0.950120000000     0.468290000000     0.996090000000    -0.433359   
O356     O      0.538050000000     0.468480000000     0.496090000000    -0.436377   
O357     O      0.537810000000     0.019640000000     0.996090000000    -0.429333   
O358     O      0.949880000000     0.019450000000     0.496090000000    -0.430694   
O359     O      0.493520000000     0.019580000000     0.540250000000    -0.428971   
O360     O      0.993530000000     0.019580000000     0.951930000000    -0.428941   
O361     O      0.494740000000     0.218360000000     0.951930000000    -0.432877   
O362     O      0.994740000000     0.218360000000     0.540240000000    -0.435318   
O363     O      0.950450000000     0.217550000000     0.996080000000    -0.432635   
O364     O      0.538370000000     0.219220000000     0.496080000000    -0.436774   
O365     O      0.537470000000     0.270380000000     0.996080000000    -0.433507   
O366     O      0.949560000000     0.268700000000     0.496080000000    -0.436131   
O367     O      0.493180000000     0.269570000000     0.540240000000    -0.433906   
O368     O      0.993190000000     0.269570000000     0.951930000000    -0.433985   
O369     O      0.744390000000     0.468350000000     0.540260000000    -0.433993   
O370     O      0.744400000000     0.468350000000     0.951950000000    -0.432953   
O371     O      0.788040000000     0.468470000000     0.496100000000    -0.436684   
O372     O      0.700120000000     0.468290000000     0.996110000000    -0.433782   
O373     O      0.699880000000     0.019460000000     0.496110000000    -0.431713   
O374     O      0.787810000000     0.019630000000     0.996110000000    -0.429236   
O375     O      0.743530000000     0.019580000000     0.951950000000    -0.428012   
O376     O      0.743530000000     0.019580000000     0.540260000000    -0.429104   
O377     O      0.743190000000     0.218360000000     0.951940000000    -0.432976   
O378     O      0.743190000000     0.218360000000     0.540250000000    -0.434003   
O379     O      0.699560000000     0.219220000000     0.996100000000    -0.437081   
O380     O      0.787470000000     0.217550000000     0.496100000000    -0.433202   
O381     O      0.788370000000     0.268700000000     0.996090000000    -0.4373     
O382     O      0.700450000000     0.270380000000     0.496100000000    -0.433117   
O383     O      0.744740000000     0.269570000000     0.540250000000    -0.434127   
O384     O      0.744740000000     0.269570000000     0.951940000000    -0.433059   
O385     O      0.519580000000     0.993530000000     0.290250000000    -0.434794   
O386     O      0.519580000000     0.493530000000     0.201930000000    -0.433703   
O387     O      0.519640000000     0.537800000000     0.246090000000    -0.43406    
O388     O      0.519450000000     0.949880000000     0.246090000000    -0.435356   
O389     O      0.968290000000     0.950120000000     0.246090000000    -0.431695   
O390     O      0.968480000000     0.538050000000     0.246090000000    -0.434775   
O391     O      0.968350000000     0.994400000000     0.201940000000    -0.433746   
O392     O      0.968350000000     0.494400000000     0.290250000000    -0.432369   
O393     O      0.519580000000     0.743530000000     0.290240000000    -0.433901   
O394     O      0.519580000000     0.743530000000     0.201930000000    -0.433753   
O395     O      0.519630000000     0.787810000000     0.246080000000    -0.433751   
O396     O      0.519460000000     0.699880000000     0.246080000000    -0.436449   
O397     O      0.968290000000     0.700120000000     0.246080000000    -0.432125   
O398     O      0.968470000000     0.788040000000     0.246080000000    -0.435069   
O399     O      0.968350000000     0.744400000000     0.201930000000    -0.432347   
O400     O      0.968350000000     0.744400000000     0.290240000000    -0.432392   
O401     O      0.718360000000     0.994740000000     0.201950000000    -0.435241   
O402     O      0.718360000000     0.494740000000     0.290260000000    -0.434101   
O403     O      0.719220000000     0.538370000000     0.246110000000    -0.436712   
O404     O      0.717550000000     0.950450000000     0.246110000000    -0.432311   
O405     O      0.768710000000     0.949560000000     0.246110000000    -0.435905   
O406     O      0.770380000000     0.537470000000     0.246100000000    -0.433179   
O407     O      0.769570000000     0.993190000000     0.290260000000    -0.434873   
O408     O      0.769570000000     0.493190000000     0.201950000000    -0.433882   
O409     O      0.718360000000     0.743190000000     0.290250000000    -0.434147   
O410     O      0.718360000000     0.743190000000     0.201940000000    -0.4339     
O411     O      0.719220000000     0.699560000000     0.246100000000    -0.436857   
O412     O      0.717550000000     0.787470000000     0.246100000000    -0.433109   
O413     O      0.768710000000     0.788370000000     0.246090000000    -0.436801   
O414     O      0.770380000000     0.700450000000     0.246090000000    -0.433038   
O415     O      0.769570000000     0.744740000000     0.201940000000    -0.433863   
O416     O      0.769570000000     0.744740000000     0.290250000000    -0.433946   
O417     O      0.494400000000     0.968350000000     0.451930000000    -0.432421   
O418     O      0.994400000000     0.968350000000     0.040250000000    -0.428614   
O419     O      0.950120000000     0.968290000000     0.496090000000    -0.431696   
O420     O      0.538050000000     0.968470000000     0.996090000000    -0.434864   
O421     O      0.537810000000     0.519640000000     0.496090000000    -0.434041   
O422     O      0.949880000000     0.519450000000     0.996090000000    -0.435598   
O423     O      0.493530000000     0.519580000000     0.040250000000    -0.428639   
O424     O      0.993530000000     0.519580000000     0.451930000000    -0.434775   
O425     O      0.494740000000     0.718360000000     0.451930000000    -0.43412    
O426     O      0.994740000000     0.718360000000     0.040240000000    -0.430195   
O427     O      0.950450000000     0.717550000000     0.496080000000    -0.432536   
O428     O      0.538370000000     0.719220000000     0.996080000000    -0.43702    
O429     O      0.537480000000     0.770380000000     0.496080000000    -0.433199   
O430     O      0.949560000000     0.768700000000     0.996080000000    -0.436278   
O431     O      0.493180000000     0.769570000000     0.040240000000    -0.428743   
O432     O      0.993190000000     0.769570000000     0.451930000000    -0.434977   
O433     O      0.744390000000     0.968350000000     0.040260000000    -0.42737    
O434     O      0.744400000000     0.968350000000     0.451950000000    -0.432559   
O435     O      0.788050000000     0.968470000000     0.996100000000    -0.435304   
O436     O      0.700120000000     0.968290000000     0.496100000000    -0.432158   
O437     O      0.699880000000     0.519460000000     0.996110000000    -0.436633   
O438     O      0.787810000000     0.519630000000     0.496100000000    -0.433801   
O439     O      0.743530000000     0.519580000000     0.451950000000    -0.433859   
O440     O      0.743530000000     0.519580000000     0.040260000000    -0.428769   
O441     O      0.743190000000     0.718360000000     0.451940000000    -0.434043   
O442     O      0.743190000000     0.718360000000     0.040250000000    -0.42892    
O443     O      0.699560000000     0.719220000000     0.496100000000    -0.436905   
O444     O      0.787480000000     0.717550000000     0.996090000000    -0.433336   
O445     O      0.788370000000     0.768710000000     0.496100000000    -0.436852   
O446     O      0.700450000000     0.770380000000     0.996100000000    -0.433329   
O447     O      0.744740000000     0.769570000000     0.040250000000    -0.428727   
O448     O      0.744740000000     0.769570000000     0.451940000000    -0.433931   
O449     O      0.519580000000     0.993530000000     0.790250000000    -0.43488    
O450     O      0.519580000000     0.493530000000     0.701930000000    -0.433846   
O451     O      0.519640000000     0.537800000000     0.746090000000    -0.434112   
O452     O      0.519450000000     0.949880000000     0.746090000000    -0.435397   
O453     O      0.968290000000     0.950120000000     0.746090000000    -0.431742   
O454     O      0.968480000000     0.538050000000     0.746090000000    -0.434815   
O455     O      0.968350000000     0.994400000000     0.701940000000    -0.433887   
O456     O      0.968350000000     0.494400000000     0.790250000000    -0.432455   
O457     O      0.519580000000     0.743530000000     0.790240000000    -0.433958   
O458     O      0.519580000000     0.743530000000     0.701930000000    -0.433897   
O459     O      0.519630000000     0.787810000000     0.746080000000    -0.433798   
O460     O      0.519460000000     0.699880000000     0.746080000000    -0.436416   
O461     O      0.968290000000     0.700120000000     0.746090000000    -0.432173   
O462     O      0.968470000000     0.788040000000     0.746080000000    -0.435104   
O463     O      0.968350000000     0.744400000000     0.701930000000    -0.4325     
O464     O      0.968350000000     0.744400000000     0.790240000000    -0.432441   
O465     O      0.718350000000     0.994740000000     0.701950000000    -0.435211   
O466     O      0.718360000000     0.494740000000     0.790260000000    -0.434073   
O467     O      0.719220000000     0.538370000000     0.746110000000    -0.436755   
O468     O      0.717550000000     0.950450000000     0.746110000000    -0.432515   
O469     O      0.768700000000     0.949560000000     0.746100000000    -0.436013   
O470     O      0.770380000000     0.537470000000     0.746100000000    -0.433229   
O471     O      0.769570000000     0.993190000000     0.790260000000    -0.434859   
O472     O      0.769570000000     0.493190000000     0.701950000000    -0.433942   
O473     O      0.718360000000     0.743190000000     0.790250000000    -0.434111   
O474     O      0.718350000000     0.743190000000     0.701940000000    -0.433865   
O475     O      0.719220000000     0.699560000000     0.746100000000    -0.436898   
O476     O      0.717550000000     0.787470000000     0.746100000000    -0.433314   
O477     O      0.768700000000     0.788370000000     0.746090000000    -0.436909   
O478     O      0.770380000000     0.700450000000     0.746090000000    -0.433088   
O479     O      0.769570000000     0.744740000000     0.701940000000    -0.433929   
O480     O      0.769570000000     0.744740000000     0.790250000000    -0.433909   
O481     O      0.494400000000     0.968350000000     0.951930000000    -0.431423   
O482     O      0.994400000000     0.968350000000     0.540250000000    -0.433793   
O483     O      0.950120000000     0.968290000000     0.996090000000    -0.431926   
O484     O      0.538050000000     0.968470000000     0.496090000000    -0.434649   
O485     O      0.537810000000     0.519640000000     0.996090000000    -0.434232   
O486     O      0.949880000000     0.519450000000     0.496090000000    -0.435372   
O487     O      0.493520000000     0.519580000000     0.540250000000    -0.43382    
O488     O      0.993530000000     0.519580000000     0.951930000000    -0.433772   
O489     O      0.494740000000     0.718360000000     0.951930000000    -0.43302    
O490     O      0.994740000000     0.718360000000     0.540240000000    -0.435379   
O491     O      0.950450000000     0.717550000000     0.996080000000    -0.432769   
O492     O      0.538370000000     0.719220000000     0.496080000000    -0.436817   
O493     O      0.537470000000     0.770380000000     0.996080000000    -0.433492   
O494     O      0.949560000000     0.768700000000     0.496080000000    -0.436032   
O495     O      0.493180000000     0.769570000000     0.540240000000    -0.433898   
O496     O      0.993190000000     0.769570000000     0.951930000000    -0.433886   
O497     O      0.744390000000     0.968350000000     0.540260000000    -0.432457   
O498     O      0.744400000000     0.968350000000     0.951950000000    -0.431426   
O499     O      0.788040000000     0.968470000000     0.496100000000    -0.43513    
O500     O      0.700120000000     0.968290000000     0.996110000000    -0.432348   
O501     O      0.699880000000     0.519460000000     0.496110000000    -0.436397   
O502     O      0.787810000000     0.519630000000     0.996110000000    -0.434064   
O503     O      0.743530000000     0.519580000000     0.951950000000    -0.432849   
O504     O      0.743530000000     0.519580000000     0.540260000000    -0.433949   
O505     O      0.743190000000     0.718360000000     0.951940000000    -0.433026   
O506     O      0.743190000000     0.718360000000     0.540250000000    -0.434139   
O507     O      0.699560000000     0.719220000000     0.996100000000    -0.437106   
O508     O      0.787470000000     0.717550000000     0.496100000000    -0.433176   
O509     O      0.788370000000     0.768710000000     0.996090000000    -0.43712    
O510     O      0.700450000000     0.770380000000     0.496100000000    -0.433101   
O511     O      0.744740000000     0.769570000000     0.540250000000    -0.434023   
O512     O      0.744740000000     0.769570000000     0.951940000000    -0.433045   


