data_structure

_audit_creation_method RASPA-1.0
_audit_creation_date 2023-5-22
_audit_author_name 'Poobodin Mano'

_cell_length_a    43.3647
_cell_length_b    43.3671
_cell_length_c    43.5594
_cell_angle_alpha 90
_cell_angle_beta  90
_cell_angle_gamma 89.9969
_cell_volume      81917.9

_symmetry_cell_setting          triclinic
_symmetry_space_group_name_Hall 'P 1'
_symmetry_space_group_name_H-M  'P 1'
_symmetry_Int_Tables_number     1

_symmetry_equiv_pos_as_xyz 'x,y,z'

loop_
_atom_site_label
_atom_site_type_symbol
_atom_site_fract_x
_atom_site_fract_y
_atom_site_fract_z
_atom_site_charge
C1       C      0.996230000000     0.054760000000     0.494990000000     0.378019   
C2       C      0.996120000000     0.437500000000     0.492860000000     0.379623   
C3       C      0.054900000000     0.996060000000     0.993720000000     0.373813   
C4       C      0.437620000000     0.996190000000     0.994130000000     0.375177   
C5       C      0.496150000000     0.437490000000     0.242800000000     0.378529   
C6       C      0.496210000000     0.054760000000     0.245080000000     0.377185   
C7       C      0.437550000000     0.495960000000     0.242590000000     0.378363   
C8       C      0.054820000000     0.496280000000     0.245290000000     0.377324   
C9       C      0.996090000000     0.187490000000     0.494590000000     0.373282   
C10      C      0.996030000000     0.304780000000     0.993290000000     0.373734   
C11      C      0.496550000000     0.245740000000     0.435440000000     0.377862   
C12      C      0.495630000000     0.246540000000     0.052450000000     0.377079   
C13      C      0.495920000000     0.304780000000     0.243190000000     0.37885    
C14      C      0.496350000000     0.187470000000     0.244700000000     0.379249   
C15      C      0.995540000000     0.245630000000     0.185440000000     0.372322   
C16      C      0.996720000000     0.246630000000     0.302450000000     0.372015   
C17      C      0.245810000000     0.496260000000     0.052450000000     0.377356   
C18      C      0.246750000000     0.495990000000     0.435430000000     0.378209   
C19      C      0.187630000000     0.996020000000     0.993550000000     0.37399    
C20      C      0.304930000000     0.996230000000     0.994320000000     0.373894   
C21      C      0.247130000000     0.496250000000     0.302440000000     0.378172   
C22      C      0.245250000000     0.496010000000     0.185430000000     0.378105   
C23      C      0.304840000000     0.495780000000     0.242810000000     0.37888    
C24      C      0.187540000000     0.496470000000     0.245070000000     0.37901    
C25      C      0.247200000000     0.023980000000     0.385030000000     0.00239362 
C26      C      0.247030000000     0.496010000000     0.401400000000    -0.0892442  
C27      C      0.247110000000     0.468150000000     0.384920000000    -0.00284173 
C28      C      0.247250000000     0.468260000000     0.352840000000    -0.00273915 
C29      C      0.247320000000     0.496220000000     0.336460000000    -0.0893991  
C30      C      0.247340000000     0.024080000000     0.352940000000     0.00264459 
C31      C      0.245390000000     0.024100000000     0.102950000000     0.00240762 
C32      C      0.245490000000     0.496240000000     0.086470000000    -0.0884588  
C33      C      0.245300000000     0.468270000000     0.102840000000    -0.00302048 
C34      C      0.245110000000     0.468170000000     0.134930000000    -0.00244386 
C35      C      0.245100000000     0.496030000000     0.151410000000    -0.0894032  
C36      C      0.245200000000     0.023990000000     0.135030000000     0.00284642 
C37      C      0.468870000000     0.246450000000     0.384940000000    -0.00284887 
C38      C      0.496730000000     0.245890000000     0.401420000000    -0.0893301  
C39      C      0.024680000000     0.245670000000     0.385040000000     0.00272299 
C40      C      0.024750000000     0.245990000000     0.352920000000     0.00261111 
C41      C      0.996860000000     0.246520000000     0.336480000000    -0.0938831  
C42      C      0.468930000000     0.246750000000     0.352890000000    -0.00299147 
C43      C      0.467530000000     0.245760000000     0.102870000000    -0.00277831 
C44      C      0.495470000000     0.246390000000     0.086470000000    -0.0884241  
C45      C      0.023340000000     0.246690000000     0.102930000000     0.00228531 
C46      C      0.023310000000     0.246370000000     0.134990000000     0.00256223 
C47      C      0.995390000000     0.245750000000     0.151410000000    -0.0941365  
C48      C      0.467490000000     0.245450000000     0.134980000000    -0.00237032 
C49      C      0.104990000000     0.016860000000     0.226530000000     0.00596348 
C50      C      0.088720000000     0.496720000000     0.245880000000    -0.0884562  
C51      C      0.105100000000     0.476700000000     0.265230000000    -0.0011652  
C52      C      0.137350000000     0.476300000000     0.264680000000    -0.000506941
C53      C      0.153610000000     0.496700000000     0.245570000000    -0.0894513  
C54      C      0.137210000000     0.017230000000     0.226780000000     0.00411396 
C55      C      0.387280000000     0.015570000000     0.222660000000     0.00575946 
C56      C      0.403650000000     0.495530000000     0.242010000000    -0.0896326  
C57      C      0.387380000000     0.475370000000     0.261340000000    -0.000750807
C58      C      0.355160000000     0.475000000000     0.261080000000    -0.00103913 
C59      C      0.338760000000     0.495550000000     0.242300000000    -0.0895442  
C60      C      0.355020000000     0.015970000000     0.223210000000     0.00396585 
C61      C      0.475680000000     0.387350000000     0.261780000000    -0.000741453
C62      C      0.495760000000     0.403580000000     0.242340000000    -0.0896222  
C63      C      0.015730000000     0.387180000000     0.222950000000     0.00568322 
C64      C      0.016120000000     0.354930000000     0.223550000000     0.00397809 
C65      C      0.495770000000     0.338700000000     0.242730000000    -0.0895704  
C66      C      0.475310000000     0.355130000000     0.261570000000    -0.00097426 
C67      C      0.016620000000     0.104910000000     0.226090000000     0.00595582 
C68      C      0.496580000000     0.088670000000     0.245550000000    -0.08828    
C69      C      0.476600000000     0.105060000000     0.264940000000    -0.00134061 
C70      C      0.476180000000     0.137300000000     0.264340000000    -0.000340446
C71      C      0.496510000000     0.153550000000     0.245150000000    -0.0896387  
C72      C      0.016980000000     0.137130000000     0.226290000000     0.00417322 
C73      C      0.105170000000     0.475880000000     0.012900000000     0.00168909 
C74      C      0.088820000000     0.996000000000     0.993610000000    -0.0984372  
C75      C      0.105120000000     0.016090000000     0.474250000000     0.00519445 
C76      C      0.137350000000     0.016460000000     0.474600000000     0.00449611 
C77      C      0.153700000000     0.995970000000     0.993500000000    -0.0992613  
C78      C      0.137400000000     0.475480000000     0.012440000000     0.00441337 
C79      C      0.355150000000     0.016330000000     0.474950000000     0.00375915 
C80      C      0.338850000000     0.996280000000     0.994360000000    -0.0987558  
C81      C      0.355200000000     0.476240000000     0.013740000000     0.00382519 
C82      C      0.387430000000     0.476620000000     0.014080000000     0.00281203 
C83      C      0.403720000000     0.996250000000     0.994240000000    -0.0998454  
C84      C      0.387380000000     0.015910000000     0.474490000000     0.006305   
C85      C      0.015680000000     0.387200000000     0.472940000000     0.00558871 
C86      C      0.995790000000     0.403590000000     0.492440000000    -0.0968244  
C87      C      0.475890000000     0.387340000000     0.012040000000     0.00261204 
C88      C      0.475570000000     0.355120000000     0.011870000000     0.0037433  
C89      C      0.995930000000     0.338710000000     0.992890000000    -0.0989085  
C90      C      0.016130000000     0.354950000000     0.473570000000     0.003872   
C91      C      0.475750000000     0.137140000000     0.475910000000    -0.000579297
C92      C      0.996020000000     0.153560000000     0.494970000000    -0.0939567  
C93      C      0.016150000000     0.137320000000     0.014370000000     0.00909811 
C94      C      0.015720000000     0.105070000000     0.014980000000     0.00868977 
C95      C      0.995920000000     0.088670000000     0.495410000000    -0.0954005  
C96      C      0.476080000000     0.104920000000     0.475740000000    -0.000984503
C97      C      0.996230000000     0.054760000000     0.994990000000     0.37384    
C98      C      0.996120000000     0.437500000000     0.992860000000     0.375358   
C99      C      0.054900000000     0.996060000000     0.493720000000     0.378022   
C100     C      0.437620000000     0.996190000000     0.494130000000     0.379403   
C101     C      0.496150000000     0.437490000000     0.742800000000     0.378538   
C102     C      0.496210000000     0.054760000000     0.745080000000     0.377199   
C103     C      0.437550000000     0.495960000000     0.742590000000     0.378382   
C104     C      0.054820000000     0.496280000000     0.745290000000     0.377334   
C105     C      0.996090000000     0.187490000000     0.994590000000     0.374029   
C106     C      0.996030000000     0.304780000000     0.493290000000     0.372995   
C107     C      0.496550000000     0.245740000000     0.935440000000     0.377575   
C108     C      0.495630000000     0.246540000000     0.552450000000     0.377815   
C109     C      0.495920000000     0.304780000000     0.743180000000     0.378853   
C110     C      0.496350000000     0.187470000000     0.744700000000     0.379248   
C111     C      0.995540000000     0.245630000000     0.685440000000     0.372255   
C112     C      0.996720000000     0.246630000000     0.802450000000     0.372026   
C113     C      0.245810000000     0.496260000000     0.552450000000     0.378085   
C114     C      0.246750000000     0.495990000000     0.935430000000     0.377916   
C115     C      0.187630000000     0.996020000000     0.493550000000     0.373251   
C116     C      0.304930000000     0.996230000000     0.494320000000     0.373161   
C117     C      0.247130000000     0.496250000000     0.802440000000     0.378175   
C118     C      0.245250000000     0.496010000000     0.685430000000     0.378109   
C119     C      0.304840000000     0.495780000000     0.742810000000     0.378871   
C120     C      0.187540000000     0.496470000000     0.745070000000     0.379007   
C121     C      0.247200000000     0.023980000000     0.885030000000     0.0023374  
C122     C      0.247030000000     0.496010000000     0.901400000000    -0.0892209  
C123     C      0.247110000000     0.468150000000     0.884920000000    -0.00290651 
C124     C      0.247250000000     0.468260000000     0.852840000000    -0.00276041 
C125     C      0.247320000000     0.496220000000     0.836460000000    -0.0894308  
C126     C      0.247340000000     0.024080000000     0.852940000000     0.00263979 
C127     C      0.245390000000     0.024100000000     0.602950000000     0.00254011 
C128     C      0.245490000000     0.496240000000     0.586470000000    -0.0893218  
C129     C      0.245300000000     0.468270000000     0.602840000000    -0.00288365 
C130     C      0.245110000000     0.468170000000     0.634930000000    -0.00271513 
C131     C      0.245100000000     0.496030000000     0.651410000000    -0.0893784  
C132     C      0.245200000000     0.023990000000     0.635030000000     0.00256433 
C133     C      0.468870000000     0.246450000000     0.884940000000    -0.0029026  
C134     C      0.496730000000     0.245890000000     0.901420000000    -0.0893072  
C135     C      0.024680000000     0.245670000000     0.885040000000     0.00266455 
C136     C      0.024750000000     0.245990000000     0.852920000000     0.00259129 
C137     C      0.996860000000     0.246520000000     0.836480000000    -0.0939042  
C138     C      0.468930000000     0.246750000000     0.852890000000    -0.00300996 
C139     C      0.467530000000     0.245760000000     0.602870000000    -0.00263904 
C140     C      0.495470000000     0.246390000000     0.586470000000    -0.0892974  
C141     C      0.023340000000     0.246690000000     0.602930000000     0.00244289 
C142     C      0.023310000000     0.246370000000     0.634990000000     0.00227995 
C143     C      0.995390000000     0.245750000000     0.651410000000    -0.0941081  
C144     C      0.467490000000     0.245450000000     0.634980000000    -0.00266497 
C145     C      0.104990000000     0.016860000000     0.726530000000     0.00593582 
C146     C      0.088720000000     0.496720000000     0.745880000000    -0.0884785  
C147     C      0.105100000000     0.476700000000     0.765230000000    -0.00118096 
C148     C      0.137350000000     0.476300000000     0.764680000000    -0.000518754
C149     C      0.153610000000     0.496700000000     0.745570000000    -0.0894883  
C150     C      0.137210000000     0.017230000000     0.726780000000     0.00409269 
C151     C      0.387280000000     0.015570000000     0.722660000000     0.00577378 
C152     C      0.403650000000     0.495530000000     0.742000000000    -0.089692   
C153     C      0.387380000000     0.475370000000     0.761330000000    -0.000728239
C154     C      0.355160000000     0.475000000000     0.761080000000    -0.00107958 
C155     C      0.338760000000     0.495550000000     0.742300000000    -0.0895656  
C156     C      0.355020000000     0.015970000000     0.723210000000     0.00391516 
C157     C      0.475680000000     0.387350000000     0.761780000000    -0.000762259
C158     C      0.495760000000     0.403580000000     0.742340000000    -0.0896479  
C159     C      0.015730000000     0.387180000000     0.722950000000     0.00565933 
C160     C      0.016120000000     0.354930000000     0.723550000000     0.00394922 
C161     C      0.495770000000     0.338700000000     0.742730000000    -0.0896111  
C162     C      0.475310000000     0.355130000000     0.761570000000    -0.000977906
C163     C      0.016620000000     0.104910000000     0.726090000000     0.00595942 
C164     C      0.496580000000     0.088670000000     0.745540000000    -0.0883148  
C165     C      0.476600000000     0.105060000000     0.764940000000    -0.00136378 
C166     C      0.476180000000     0.137300000000     0.764340000000    -0.000376878
C167     C      0.496510000000     0.153550000000     0.745150000000    -0.0896673  
C168     C      0.016980000000     0.137130000000     0.726290000000     0.00413153 
C169     C      0.105170000000     0.475880000000     0.512900000000    -0.00166256 
C170     C      0.088820000000     0.996000000000     0.493610000000    -0.0954046  
C171     C      0.105120000000     0.016090000000     0.974250000000     0.00478109 
C172     C      0.137350000000     0.016460000000     0.974600000000     0.00536209 
C173     C      0.153700000000     0.995970000000     0.493500000000    -0.0942892  
C174     C      0.137400000000     0.475480000000     0.512440000000    -0.000375385
C175     C      0.355150000000     0.016330000000     0.974950000000     0.00463932 
C176     C      0.338850000000     0.996280000000     0.494360000000    -0.0937832  
C177     C      0.355200000000     0.476240000000     0.513740000000    -0.000943223
C178     C      0.387430000000     0.476620000000     0.514080000000    -0.000526831
C179     C      0.403720000000     0.996250000000     0.494240000000    -0.0968096  
C180     C      0.387380000000     0.015910000000     0.974490000000     0.00592785 
C181     C      0.015680000000     0.387200000000     0.972940000000     0.00517546 
C182     C      0.995790000000     0.403590000000     0.992440000000    -0.0998978  
C183     C      0.475890000000     0.387340000000     0.512040000000    -0.000728164
C184     C      0.475570000000     0.355120000000     0.511870000000    -0.00102188 
C185     C      0.995930000000     0.338710000000     0.492890000000    -0.09392    
C186     C      0.016130000000     0.354950000000     0.973570000000     0.00472513 
C187     C      0.475750000000     0.137140000000     0.975910000000     0.000342697
C188     C      0.996020000000     0.153560000000     0.994970000000    -0.0989456  
C189     C      0.016150000000     0.137320000000     0.514380000000     0.0042633  
C190     C      0.015720000000     0.105070000000     0.514980000000     0.00540101 
C191     C      0.995920000000     0.088670000000     0.995410000000    -0.0983761  
C192     C      0.476080000000     0.104920000000     0.975740000000    -0.00136717 
C193     C      0.996230000000     0.554760000000     0.494990000000     0.379164   
C194     C      0.996120000000     0.937500000000     0.492860000000     0.379214   
C195     C      0.054900000000     0.496060000000     0.993720000000     0.372777   
C196     C      0.437620000000     0.496190000000     0.994130000000     0.374139   
C197     C      0.496150000000     0.937490000000     0.242800000000     0.37812    
C198     C      0.496220000000     0.554760000000     0.245080000000     0.378213   
C199     C      0.437550000000     0.995960000000     0.242590000000     0.379369   
C200     C      0.054820000000     0.996280000000     0.245290000000     0.378334   
C201     C      0.996090000000     0.687490000000     0.494590000000     0.373184   
C202     C      0.996030000000     0.804780000000     0.993290000000     0.374033   
C203     C      0.496550000000     0.745740000000     0.435440000000     0.377867   
C204     C      0.495620000000     0.746530000000     0.052450000000     0.377088   
C205     C      0.495920000000     0.804780000000     0.243190000000     0.37918    
C206     C      0.496350000000     0.687470000000     0.244700000000     0.379149   
C207     C      0.995540000000     0.745630000000     0.185440000000     0.372317   
C208     C      0.996720000000     0.746630000000     0.302450000000     0.372296   
C209     C      0.245810000000     0.996260000000     0.052450000000     0.371536   
C210     C      0.246750000000     0.995990000000     0.435430000000     0.372259   
C211     C      0.187630000000     0.496020000000     0.993550000000     0.380043   
C212     C      0.304930000000     0.496230000000     0.994320000000     0.379896   
C213     C      0.247130000000     0.996240000000     0.302440000000     0.372373   
C214     C      0.245250000000     0.996000000000     0.185430000000     0.372204   
C215     C      0.304840000000     0.995780000000     0.242810000000     0.372911   
C216     C      0.187540000000     0.996470000000     0.245070000000     0.37299    
C217     C      0.247190000000     0.523980000000     0.385030000000    -0.00289798 
C218     C      0.247030000000     0.996010000000     0.401400000000    -0.0940892  
C219     C      0.247110000000     0.968150000000     0.384920000000    -0.00268734 
C220     C      0.247250000000     0.968260000000     0.352840000000    -0.0025756  
C221     C      0.247320000000     0.996220000000     0.336460000000    -0.0941944  
C222     C      0.247340000000     0.524080000000     0.352940000000    -0.00271671 
C223     C      0.245390000000     0.524100000000     0.102950000000    -0.0029143  
C224     C      0.245490000000     0.996240000000     0.086470000000    -0.0932237  
C225     C      0.245300000000     0.968270000000     0.102840000000    -0.00285724 
C226     C      0.245110000000     0.968170000000     0.134930000000    -0.00228764 
C227     C      0.245100000000     0.996030000000     0.151410000000    -0.0942615  
C228     C      0.245200000000     0.523990000000     0.135030000000    -0.00246504 
C229     C      0.468870000000     0.746440000000     0.384940000000    -0.00284946 
C230     C      0.496730000000     0.745890000000     0.401420000000    -0.0893795  
C231     C      0.024680000000     0.745670000000     0.385040000000     0.0026797  
C232     C      0.024750000000     0.745990000000     0.352920000000     0.00265431 
C233     C      0.996860000000     0.746530000000     0.336480000000    -0.0940504  
C234     C      0.468930000000     0.746750000000     0.352890000000    -0.0030655  
C235     C      0.467530000000     0.745760000000     0.102870000000    -0.00281932 
C236     C      0.495470000000     0.746390000000     0.086470000000    -0.0884561  
C237     C      0.023340000000     0.746690000000     0.102930000000     0.00226669 
C238     C      0.023310000000     0.746370000000     0.134990000000     0.00255667 
C239     C      0.995390000000     0.745750000000     0.151410000000    -0.0941833  
C240     C      0.467490000000     0.745450000000     0.134980000000    -0.00238889 
C241     C      0.104990000000     0.516860000000     0.226530000000    -0.000801158
C242     C      0.088720000000     0.996720000000     0.245880000000    -0.0955429  
C243     C      0.105100000000     0.976700000000     0.265230000000     9.36001e-05
C244     C      0.137350000000     0.976300000000     0.264680000000    -0.0010339  
C245     C      0.153610000000     0.996700000000     0.245570000000    -0.0938188  
C246     C      0.137210000000     0.517230000000     0.226780000000    -0.000683716
C247     C      0.387280000000     0.515570000000     0.222660000000    -0.00105804 
C248     C      0.403650000000     0.995530000000     0.242010000000    -0.0967434  
C249     C      0.387380000000     0.975370000000     0.261340000000     0.000518954
C250     C      0.355160000000     0.975000000000     0.261080000000    -0.00156353 
C251     C      0.338760000000     0.995550000000     0.242300000000    -0.0939044  
C252     C      0.355020000000     0.515970000000     0.223210000000    -0.000823645
C253     C      0.475690000000     0.887350000000     0.261780000000    -0.000765875
C254     C      0.495760000000     0.903580000000     0.242340000000    -0.0895772  
C255     C      0.015730000000     0.887180000000     0.222950000000     0.00560844 
C256     C      0.016120000000     0.854930000000     0.223550000000     0.00399494 
C257     C      0.495770000000     0.838700000000     0.242730000000    -0.0896757  
C258     C      0.475310000000     0.855130000000     0.261570000000    -0.000961013
C259     C      0.016620000000     0.604910000000     0.226090000000     0.00622484 
C260     C      0.496580000000     0.588670000000     0.245550000000    -0.0894697  
C261     C      0.476600000000     0.605060000000     0.264940000000    -0.00112013 
C262     C      0.476180000000     0.637300000000     0.264340000000    -0.00073644 
C263     C      0.496510000000     0.653550000000     0.245150000000    -0.0895865  
C264     C      0.016980000000     0.637130000000     0.226290000000     0.0037764  
C265     C      0.105170000000     0.975880000000     0.012900000000     0.00295031 
C266     C      0.088820000000     0.496000000000     0.993610000000    -0.0913558  
C267     C      0.105120000000     0.516090000000     0.474250000000    -0.00160616 
C268     C      0.137350000000     0.516460000000     0.474600000000    -0.000266712
C269     C      0.153700000000     0.495970000000     0.993500000000    -0.0949502  
C270     C      0.137400000000     0.975480000000     0.012440000000     0.00386977 
C271     C      0.355150000000     0.516330000000     0.474950000000    -0.00101779 
C272     C      0.338850000000     0.496280000000     0.994360000000    -0.0944263  
C273     C      0.355200000000     0.976240000000     0.013740000000     0.00327096 
C274     C      0.387430000000     0.976620000000     0.014080000000     0.00408114 
C275     C      0.403720000000     0.496250000000     0.994240000000    -0.0927295  
C276     C      0.387380000000     0.515910000000     0.474490000000    -0.000535218
C277     C      0.015680000000     0.887200000000     0.472940000000     0.00549913 
C278     C      0.995790000000     0.903590000000     0.492440000000    -0.0967422  
C279     C      0.475890000000     0.887340000000     0.012040000000     0.00253136 
C280     C      0.475570000000     0.855120000000     0.011870000000     0.00375418 
C281     C      0.995930000000     0.838710000000     0.992890000000    -0.0990479  
C282     C      0.016130000000     0.854950000000     0.473570000000     0.00393791 
C283     C      0.475750000000     0.637140000000     0.475910000000    -0.00105737 
C284     C      0.996020000000     0.653560000000     0.494970000000    -0.0939036  
C285     C      0.016150000000     0.637320000000     0.014370000000     0.00871751 
C286     C      0.015720000000     0.605070000000     0.014980000000     0.00896652 
C287     C      0.995920000000     0.588670000000     0.495410000000    -0.0966603  
C288     C      0.476090000000     0.604920000000     0.475740000000    -0.000638763
C289     C      0.996230000000     0.554760000000     0.994990000000     0.374968   
C290     C      0.996120000000     0.937500000000     0.992860000000     0.374959   
C291     C      0.054900000000     0.496060000000     0.493720000000     0.376996   
C292     C      0.437620000000     0.496190000000     0.494130000000     0.378374   
C293     C      0.496150000000     0.937490000000     0.742800000000     0.378129   
C294     C      0.496220000000     0.554760000000     0.745080000000     0.378227   
C295     C      0.437550000000     0.995960000000     0.742590000000     0.379391   
C296     C      0.054820000000     0.996280000000     0.745290000000     0.378345   
C297     C      0.996090000000     0.687490000000     0.994590000000     0.373933   
C298     C      0.996030000000     0.804780000000     0.493290000000     0.373294   
C299     C      0.496550000000     0.745740000000     0.935440000000     0.377579   
C300     C      0.495620000000     0.746530000000     0.552450000000     0.377823   
C301     C      0.495920000000     0.804780000000     0.743180000000     0.379182   
C302     C      0.496350000000     0.687470000000     0.744700000000     0.379148   
C303     C      0.995540000000     0.745630000000     0.685440000000     0.37225    
C304     C      0.996720000000     0.746630000000     0.802450000000     0.372307   
C305     C      0.245810000000     0.996260000000     0.552450000000     0.372246   
C306     C      0.246750000000     0.995990000000     0.935430000000     0.37198    
C307     C      0.187630000000     0.496020000000     0.493550000000     0.379318   
C308     C      0.304930000000     0.496230000000     0.494320000000     0.379178   
C309     C      0.247130000000     0.996240000000     0.802440000000     0.372376   
C310     C      0.245250000000     0.996000000000     0.685430000000     0.372202   
C311     C      0.304840000000     0.995780000000     0.742810000000     0.372898   
C312     C      0.187540000000     0.996470000000     0.745070000000     0.372985   
C313     C      0.247190000000     0.523980000000     0.885030000000    -0.00294907 
C314     C      0.247030000000     0.996010000000     0.901400000000    -0.0940614  
C315     C      0.247110000000     0.968150000000     0.884920000000    -0.00275179 
C316     C      0.247250000000     0.968260000000     0.852840000000    -0.00259714 
C317     C      0.247320000000     0.996220000000     0.836460000000    -0.0942213  
C318     C      0.247340000000     0.524080000000     0.852940000000    -0.00271851 
C319     C      0.245390000000     0.524100000000     0.602950000000    -0.00279496 
C320     C      0.245490000000     0.996240000000     0.586470000000    -0.0940933  
C321     C      0.245300000000     0.968270000000     0.602840000000    -0.00272014 
C322     C      0.245110000000     0.968170000000     0.634930000000    -0.00255825 
C323     C      0.245100000000     0.996030000000     0.651410000000    -0.0942446  
C324     C      0.245200000000     0.523990000000     0.635030000000    -0.002756   
C325     C      0.468870000000     0.746440000000     0.884940000000    -0.00290319 
C326     C      0.496730000000     0.745890000000     0.901420000000    -0.0893565  
C327     C      0.024680000000     0.745670000000     0.885040000000     0.00262119 
C328     C      0.024750000000     0.745990000000     0.852920000000     0.00263453 
C329     C      0.996860000000     0.746530000000     0.836480000000    -0.0940715  
C330     C      0.468930000000     0.746750000000     0.852890000000    -0.00308392 
C331     C      0.467530000000     0.745760000000     0.602870000000    -0.00268004 
C332     C      0.495470000000     0.746390000000     0.586470000000    -0.0893303  
C333     C      0.023340000000     0.746690000000     0.602930000000     0.00242435 
C334     C      0.023310000000     0.746370000000     0.634990000000     0.00227404 
C335     C      0.995390000000     0.745750000000     0.651410000000    -0.0941551  
C336     C      0.467490000000     0.745450000000     0.634980000000    -0.00268395 
C337     C      0.104990000000     0.516860000000     0.726530000000    -0.000833197
C338     C      0.088720000000     0.996720000000     0.745880000000    -0.0955688  
C339     C      0.105100000000     0.976700000000     0.765230000000     7.89236e-05
C340     C      0.137350000000     0.976300000000     0.764680000000    -0.00104541 
C341     C      0.153610000000     0.996700000000     0.745570000000    -0.0938583  
C342     C      0.137210000000     0.517230000000     0.726780000000    -0.000708399
C343     C      0.387280000000     0.515570000000     0.722660000000    -0.00105256 
C344     C      0.403650000000     0.995530000000     0.742000000000    -0.0968107  
C345     C      0.387380000000     0.975370000000     0.761330000000     0.000544007
C346     C      0.355160000000     0.975000000000     0.761080000000    -0.0016047  
C347     C      0.338760000000     0.995550000000     0.742300000000    -0.0939275  
C348     C      0.355020000000     0.515970000000     0.723210000000    -0.0008761  
C349     C      0.475690000000     0.887350000000     0.761780000000    -0.000786704
C350     C      0.495760000000     0.903580000000     0.742340000000    -0.0896029  
C351     C      0.015730000000     0.887180000000     0.722950000000     0.00558447 
C352     C      0.016120000000     0.854930000000     0.723550000000     0.00396607 
C353     C      0.495770000000     0.838700000000     0.742730000000    -0.0897165  
C354     C      0.475310000000     0.855130000000     0.761570000000    -0.00096463 
C355     C      0.016620000000     0.604910000000     0.726090000000     0.0062288  
C356     C      0.496580000000     0.588670000000     0.745540000000    -0.0895053  
C357     C      0.476600000000     0.605060000000     0.764940000000    -0.00114344 
C358     C      0.476180000000     0.637300000000     0.764340000000    -0.000773016
C359     C      0.496510000000     0.653550000000     0.745150000000    -0.0896151  
C360     C      0.016980000000     0.637130000000     0.726290000000     0.0037342  
C361     C      0.105170000000     0.975880000000     0.512900000000    -0.000392325
C362     C      0.088820000000     0.496000000000     0.493610000000    -0.0883014  
C363     C      0.105120000000     0.516090000000     0.974250000000    -0.00200646 
C364     C      0.137350000000     0.516460000000     0.974600000000     0.000610746
C365     C      0.153700000000     0.495970000000     0.493500000000    -0.0899582  
C366     C      0.137400000000     0.975480000000     0.512440000000    -0.000910904
C367     C      0.355150000000     0.516330000000     0.974950000000    -0.000126052
C368     C      0.338850000000     0.496280000000     0.494360000000    -0.0894338  
C369     C      0.355200000000     0.976240000000     0.513740000000    -0.00148931 
C370     C      0.387430000000     0.976620000000     0.514080000000     0.000751442
C371     C      0.403720000000     0.496250000000     0.494240000000    -0.0896719  
C372     C      0.387380000000     0.515910000000     0.974490000000    -0.000899005
C373     C      0.015680000000     0.887200000000     0.972940000000     0.00508635 
C374     C      0.995790000000     0.903590000000     0.992440000000    -0.0998126  
C375     C      0.475890000000     0.887340000000     0.512040000000    -0.000805819
C376     C      0.475570000000     0.855120000000     0.511870000000    -0.00101072 
C377     C      0.995930000000     0.838710000000     0.492890000000    -0.0940621  
C378     C      0.016130000000     0.854950000000     0.973570000000     0.0047913  
C379     C      0.475750000000     0.637140000000     0.975910000000    -0.000134711
C380     C      0.996020000000     0.653560000000     0.994970000000    -0.0989009  
C381     C      0.016150000000     0.637320000000     0.514380000000     0.00387295 
C382     C      0.015720000000     0.605070000000     0.514980000000     0.00566796 
C383     C      0.995920000000     0.588670000000     0.995410000000    -0.099639   
C384     C      0.476090000000     0.604920000000     0.975740000000    -0.00102064 
C385     C      0.496230000000     0.054760000000     0.494990000000     0.376999   
C386     C      0.496120000000     0.437500000000     0.492860000000     0.37861    
C387     C      0.554900000000     0.996060000000     0.993720000000     0.374913   
C388     C      0.937620000000     0.996190000000     0.994130000000     0.374777   
C389     C      0.996140000000     0.437490000000     0.242800000000     0.379545   
C390     C      0.996210000000     0.054760000000     0.245080000000     0.37821    
C391     C      0.937550000000     0.495960000000     0.242590000000     0.377949   
C392     C      0.554820000000     0.496280000000     0.245290000000     0.378414   
C393     C      0.496090000000     0.187490000000     0.494590000000     0.379311   
C394     C      0.496030000000     0.304780000000     0.993290000000     0.380037   
C395     C      0.996550000000     0.245740000000     0.435440000000     0.37203    
C396     C      0.995620000000     0.246540000000     0.052450000000     0.371257   
C397     C      0.995920000000     0.304780000000     0.243190000000     0.372836   
C398     C      0.996350000000     0.187470000000     0.244700000000     0.373234   
C399     C      0.495540000000     0.245630000000     0.185440000000     0.378215   
C400     C      0.496720000000     0.246630000000     0.302450000000     0.378084   
C401     C      0.745810000000     0.496260000000     0.052450000000     0.377354   
C402     C      0.746750000000     0.495990000000     0.435430000000     0.378206   
C403     C      0.687630000000     0.996020000000     0.993550000000     0.373887   
C404     C      0.804930000000     0.996230000000     0.994320000000     0.3739     
C405     C      0.747130000000     0.496250000000     0.302440000000     0.378154   
C406     C      0.745250000000     0.496010000000     0.185430000000     0.378088   
C407     C      0.804840000000     0.495780000000     0.242810000000     0.378944   
C408     C      0.687540000000     0.496470000000     0.245070000000     0.378974   
C409     C      0.747190000000     0.023980000000     0.385030000000     0.00238135 
C410     C      0.747030000000     0.496010000000     0.401400000000    -0.0892761  
C411     C      0.747110000000     0.468150000000     0.384920000000    -0.00286785 
C412     C      0.747240000000     0.468260000000     0.352840000000    -0.00276775 
C413     C      0.747320000000     0.496220000000     0.336460000000    -0.089424   
C414     C      0.747340000000     0.024080000000     0.352940000000     0.0026307  
C415     C      0.745390000000     0.024100000000     0.102950000000     0.00239548 
C416     C      0.745490000000     0.496240000000     0.086470000000    -0.0884885  
C417     C      0.745300000000     0.468270000000     0.102840000000    -0.00304552 
C418     C      0.745110000000     0.468170000000     0.134930000000    -0.00247364 
C419     C      0.745110000000     0.496030000000     0.151410000000    -0.0894289  
C420     C      0.745200000000     0.023990000000     0.135030000000     0.00283552 
C421     C      0.968870000000     0.246450000000     0.384940000000    -0.00263152 
C422     C      0.996730000000     0.245890000000     0.401420000000    -0.0941537  
C423     C      0.524680000000     0.245670000000     0.385040000000    -0.0026467  
C424     C      0.524750000000     0.245990000000     0.352920000000    -0.00269327 
C425     C      0.496860000000     0.246520000000     0.336480000000    -0.0892371  
C426     C      0.968930000000     0.246750000000     0.352890000000    -0.00285691 
C427     C      0.967530000000     0.245760000000     0.102870000000    -0.00265119 
C428     C      0.995470000000     0.246390000000     0.086470000000    -0.0932602  
C429     C      0.523340000000     0.246690000000     0.102930000000    -0.00300818 
C430     C      0.523310000000     0.246370000000     0.134990000000    -0.00269544 
C431     C      0.495390000000     0.245750000000     0.151410000000    -0.0892707  
C432     C      0.967490000000     0.245450000000     0.134980000000    -0.0022354  
C433     C      0.604990000000     0.016860000000     0.226530000000     0.00623102 
C434     C      0.588720000000     0.496720000000     0.245880000000    -0.0897031  
C435     C      0.605100000000     0.476700000000     0.265230000000    -0.000929803
C436     C      0.637350000000     0.476300000000     0.264680000000    -0.000924348
C437     C      0.653610000000     0.496700000000     0.245570000000    -0.0893718  
C438     C      0.637210000000     0.017230000000     0.226780000000     0.00374263 
C439     C      0.887270000000     0.015570000000     0.222660000000     0.0056937  
C440     C      0.903650000000     0.495530000000     0.242010000000    -0.089568   
C441     C      0.887380000000     0.475370000000     0.261340000000    -0.000814744
C442     C      0.855160000000     0.475000000000     0.261080000000    -0.00104739 
C443     C      0.838760000000     0.495550000000     0.242300000000    -0.089549   
C444     C      0.855020000000     0.015970000000     0.223210000000     0.00398207 
C445     C      0.975680000000     0.387350000000     0.261780000000     0.000521771
C446     C      0.995760000000     0.403580000000     0.242340000000    -0.0967298  
C447     C      0.515730000000     0.387180000000     0.222950000000    -0.00113542 
C448     C      0.516120000000     0.354930000000     0.223550000000    -0.000786509
C449     C      0.995770000000     0.338700000000     0.242730000000    -0.0939166  
C450     C      0.975310000000     0.355130000000     0.261570000000    -0.00149869 
C451     C      0.516620000000     0.104910000000     0.226090000000    -0.000815118
C452     C      0.996580000000     0.088670000000     0.245550000000    -0.0953686  
C453     C      0.976600000000     0.105060000000     0.264940000000    -5.72084e-05
C454     C      0.976180000000     0.137300000000     0.264340000000    -0.000867336
C455     C      0.996510000000     0.153550000000     0.245150000000    -0.0939709  
C456     C      0.516980000000     0.137130000000     0.226290000000    -0.000563073
C457     C      0.605170000000     0.475880000000     0.012900000000     0.00196201 
C458     C      0.588820000000     0.996000000000     0.993610000000    -0.0997225  
C459     C      0.605120000000     0.016090000000     0.474250000000     0.00549368 
C460     C      0.637350000000     0.016460000000     0.474600000000     0.00408879 
C461     C      0.653700000000     0.995970000000     0.993500000000    -0.0991838  
C462     C      0.637400000000     0.475480000000     0.012440000000     0.00400747 
C463     C      0.855150000000     0.016330000000     0.474950000000     0.0037764  
C464     C      0.838850000000     0.996280000000     0.994360000000    -0.0987814  
C465     C      0.855200000000     0.476240000000     0.013740000000     0.00382569 
C466     C      0.887430000000     0.476620000000     0.014080000000     0.00272378 
C467     C      0.903720000000     0.996250000000     0.994240000000    -0.0997789  
C468     C      0.887380000000     0.015910000000     0.474490000000     0.00623043 
C469     C      0.515680000000     0.387200000000     0.472940000000    -0.00125107 
C470     C      0.495790000000     0.403590000000     0.492440000000    -0.0897002  
C471     C      0.975890000000     0.387340000000     0.012040000000     0.003899   
C472     C      0.975570000000     0.355120000000     0.011870000000     0.00314757 
C473     C      0.495930000000     0.338710000000     0.992890000000    -0.0946928  
C474     C      0.516130000000     0.354950000000     0.473570000000    -0.000851993
C475     C      0.975750000000     0.137140000000     0.475910000000    -0.00113643 
C476     C      0.496020000000     0.153560000000     0.494970000000    -0.0896352  
C477     C      0.516150000000     0.137320000000     0.014370000000     0.00438609 
C478     C      0.515720000000     0.105070000000     0.014980000000     0.0019328  
C479     C      0.495920000000     0.088670000000     0.495410000000    -0.0882806  
C480     C      0.976090000000     0.104920000000     0.475740000000     0.00035833 
C481     C      0.496230000000     0.054760000000     0.994990000000     0.372815   
C482     C      0.496120000000     0.437500000000     0.992860000000     0.374337   
C483     C      0.554900000000     0.996060000000     0.493720000000     0.37914    
C484     C      0.937620000000     0.996190000000     0.494130000000     0.378994   
C485     C      0.996140000000     0.437490000000     0.742800000000     0.379555   
C486     C      0.996210000000     0.054760000000     0.745080000000     0.378227   
C487     C      0.937550000000     0.495960000000     0.742590000000     0.377969   
C488     C      0.554820000000     0.496280000000     0.745290000000     0.378425   
C489     C      0.496090000000     0.187490000000     0.994590000000     0.380047   
C490     C      0.496030000000     0.304780000000     0.493290000000     0.37931    
C491     C      0.996550000000     0.245740000000     0.935440000000     0.371754   
C492     C      0.995620000000     0.246540000000     0.552450000000     0.371971   
C493     C      0.995920000000     0.304780000000     0.743180000000     0.372835   
C494     C      0.996350000000     0.187470000000     0.744700000000     0.37323    
C495     C      0.495540000000     0.245630000000     0.685440000000     0.378153   
C496     C      0.496720000000     0.246630000000     0.802450000000     0.378096   
C497     C      0.745810000000     0.496260000000     0.552450000000     0.378084   
C498     C      0.746750000000     0.495990000000     0.935430000000     0.377914   
C499     C      0.687630000000     0.996020000000     0.493550000000     0.373146   
C500     C      0.804930000000     0.996230000000     0.494320000000     0.373166   
C501     C      0.747130000000     0.496250000000     0.802440000000     0.378157   
C502     C      0.745250000000     0.496010000000     0.685430000000     0.378091   
C503     C      0.804840000000     0.495780000000     0.742810000000     0.378934   
C504     C      0.687540000000     0.496470000000     0.745070000000     0.378971   
C505     C      0.747190000000     0.023980000000     0.885030000000     0.00232505 
C506     C      0.747030000000     0.496010000000     0.901400000000    -0.0892527  
C507     C      0.747110000000     0.468150000000     0.884920000000    -0.00293268 
C508     C      0.747240000000     0.468260000000     0.852840000000    -0.00278897 
C509     C      0.747320000000     0.496220000000     0.836460000000    -0.0894558  
C510     C      0.747340000000     0.024080000000     0.852940000000     0.00262591 
C511     C      0.745390000000     0.024100000000     0.602950000000     0.00252809 
C512     C      0.745490000000     0.496240000000     0.586470000000    -0.0893526  
C513     C      0.745300000000     0.468270000000     0.602840000000    -0.00290857 
C514     C      0.745110000000     0.468170000000     0.634930000000    -0.00274536 
C515     C      0.745110000000     0.496030000000     0.651410000000    -0.0894041  
C516     C      0.745200000000     0.023990000000     0.635030000000     0.00255301 
C517     C      0.968870000000     0.246450000000     0.884940000000    -0.00268524 
C518     C      0.996730000000     0.245890000000     0.901420000000    -0.094127   
C519     C      0.524680000000     0.245670000000     0.885040000000    -0.0027004  
C520     C      0.524750000000     0.245990000000     0.852920000000    -0.00271238 
C521     C      0.496860000000     0.246520000000     0.836480000000    -0.0892616  
C522     C      0.968930000000     0.246750000000     0.852890000000    -0.00287539 
C523     C      0.967530000000     0.245760000000     0.602870000000    -0.00251198 
C524     C      0.995470000000     0.246390000000     0.586470000000    -0.0941413  
C525     C      0.523340000000     0.246690000000     0.602930000000    -0.0028646  
C526     C      0.523310000000     0.246370000000     0.634990000000    -0.00298747 
C527     C      0.495390000000     0.245750000000     0.651410000000    -0.0892333  
C528     C      0.967490000000     0.245450000000     0.634980000000    -0.00252933 
C529     C      0.604990000000     0.016860000000     0.726530000000     0.00620347 
C530     C      0.588720000000     0.496720000000     0.745880000000    -0.0897263  
C531     C      0.605100000000     0.476700000000     0.765230000000    -0.000945345
C532     C      0.637350000000     0.476300000000     0.764680000000    -0.000936419
C533     C      0.653610000000     0.496700000000     0.745570000000    -0.0894089  
C534     C      0.637210000000     0.017230000000     0.726780000000     0.00372092 
C535     C      0.887270000000     0.015570000000     0.722660000000     0.00570787 
C536     C      0.903650000000     0.495530000000     0.742000000000    -0.0896274  
C537     C      0.887380000000     0.475370000000     0.761330000000    -0.000792228
C538     C      0.855160000000     0.475000000000     0.761080000000    -0.00108782 
C539     C      0.838760000000     0.495550000000     0.742300000000    -0.0895705  
C540     C      0.855020000000     0.015970000000     0.723210000000     0.00393133 
C541     C      0.975680000000     0.387350000000     0.761780000000     0.000502409
C542     C      0.995760000000     0.403580000000     0.742340000000    -0.0967608  
C543     C      0.515730000000     0.387180000000     0.722950000000    -0.00116521 
C544     C      0.516120000000     0.354930000000     0.723550000000    -0.000819858
C545     C      0.995770000000     0.338700000000     0.742730000000    -0.0939605  
C546     C      0.975310000000     0.355130000000     0.761570000000    -0.00150239 
C547     C      0.516620000000     0.104910000000     0.726090000000    -0.000820623
C548     C      0.996580000000     0.088670000000     0.745540000000    -0.0954113  
C549     C      0.976600000000     0.105060000000     0.764940000000    -7.91747e-05
C550     C      0.976180000000     0.137300000000     0.764340000000    -0.000903967
C551     C      0.996510000000     0.153550000000     0.745150000000    -0.094002   
C552     C      0.516980000000     0.137130000000     0.726290000000    -0.000607344
C553     C      0.605170000000     0.475880000000     0.512900000000    -0.00140094 
C554     C      0.588820000000     0.996000000000     0.493610000000    -0.096685   
C555     C      0.605120000000     0.016090000000     0.974250000000     0.00507926 
C556     C      0.637350000000     0.016460000000     0.974600000000     0.00495699 
C557     C      0.653700000000     0.995970000000     0.493500000000    -0.0942019  
C558     C      0.637400000000     0.475480000000     0.512440000000    -0.000792409
C559     C      0.855150000000     0.016330000000     0.974950000000     0.00465688 
C560     C      0.838850000000     0.996280000000     0.494360000000    -0.0938105  
C561     C      0.855200000000     0.476240000000     0.513740000000    -0.000943521
C562     C      0.887430000000     0.476620000000     0.514080000000    -0.00061291 
C563     C      0.903720000000     0.996250000000     0.494240000000    -0.0967454  
C564     C      0.887380000000     0.015910000000     0.974490000000     0.00585368 
C565     C      0.515680000000     0.387200000000     0.972940000000    -0.00165306 
C566     C      0.495790000000     0.403590000000     0.992440000000    -0.0927925  
C567     C      0.975890000000     0.387340000000     0.512040000000     0.000566052
C568     C      0.975570000000     0.355120000000     0.511870000000    -0.00161099 
C569     C      0.495930000000     0.338710000000     0.492890000000    -0.0896867  
C570     C      0.516130000000     0.354950000000     0.973570000000     1.12253e-05
C571     C      0.975750000000     0.137140000000     0.975910000000    -0.000216015
C572     C      0.496020000000     0.153560000000     0.994970000000    -0.0946511  
C573     C      0.516150000000     0.137320000000     0.514380000000    -0.000476203
C574     C      0.515720000000     0.105070000000     0.514980000000    -0.00138882 
C575     C      0.495920000000     0.088670000000     0.995410000000    -0.0912878  
C576     C      0.976090000000     0.104920000000     0.975740000000    -2.78146e-05
C577     C      0.496230000000     0.554760000000     0.494990000000     0.378176   
C578     C      0.496120000000     0.937500000000     0.492860000000     0.378208   
C579     C      0.554900000000     0.496060000000     0.993720000000     0.373814   
C580     C      0.937620000000     0.496190000000     0.994130000000     0.373727   
C581     C      0.996150000000     0.937490000000     0.242800000000     0.379125   
C582     C      0.996210000000     0.554760000000     0.245080000000     0.379266   
C583     C      0.937550000000     0.995960000000     0.242590000000     0.37896    
C584     C      0.554820000000     0.996280000000     0.245290000000     0.379437   
C585     C      0.496090000000     0.687490000000     0.494590000000     0.3792     
C586     C      0.496030000000     0.804780000000     0.993290000000     0.380062   
C587     C      0.996550000000     0.745740000000     0.435440000000     0.37201    
C588     C      0.995630000000     0.746530000000     0.052450000000     0.371253   
C589     C      0.995920000000     0.804780000000     0.243190000000     0.372855   
C590     C      0.996350000000     0.687470000000     0.244700000000     0.37308    
C591     C      0.495540000000     0.745630000000     0.185440000000     0.378256   
C592     C      0.496720000000     0.746630000000     0.302450000000     0.37784    
C593     C      0.745810000000     0.996260000000     0.052450000000     0.371519   
C594     C      0.746750000000     0.995990000000     0.435430000000     0.372242   
C595     C      0.687630000000     0.496020000000     0.993550000000     0.379958   
C596     C      0.804930000000     0.496230000000     0.994320000000     0.379915   
C597     C      0.747130000000     0.996240000000     0.302440000000     0.372359   
C598     C      0.745250000000     0.996000000000     0.185430000000     0.372186   
C599     C      0.804840000000     0.995780000000     0.242810000000     0.372916   
C600     C      0.687540000000     0.996470000000     0.245070000000     0.37289    
C601     C      0.747200000000     0.523980000000     0.385030000000    -0.00292458 
C602     C      0.747030000000     0.996010000000     0.401400000000    -0.0941323  
C603     C      0.747110000000     0.968150000000     0.384920000000    -0.00271445 
C604     C      0.747250000000     0.968260000000     0.352840000000    -0.00260107 
C605     C      0.747320000000     0.996220000000     0.336460000000    -0.0942373  
C606     C      0.747340000000     0.524080000000     0.352940000000    -0.00274816 
C607     C      0.745390000000     0.524100000000     0.102950000000    -0.00294027 
C608     C      0.745490000000     0.996240000000     0.086470000000    -0.0932644  
C609     C      0.745300000000     0.968270000000     0.102840000000    -0.00288316 
C610     C      0.745110000000     0.968170000000     0.134930000000    -0.00231499 
C611     C      0.745100000000     0.996030000000     0.151410000000    -0.0943035  
C612     C      0.745200000000     0.523990000000     0.135030000000    -0.00249298 
C613     C      0.968870000000     0.746440000000     0.384940000000    -0.00268696 
C614     C      0.996730000000     0.745890000000     0.401420000000    -0.094176   
C615     C      0.524680000000     0.745670000000     0.385040000000    -0.00265173 
C616     C      0.524750000000     0.745990000000     0.352920000000    -0.0027687  
C617     C      0.496860000000     0.746530000000     0.336480000000    -0.0891672  
C618     C      0.968930000000     0.746750000000     0.352890000000    -0.00282115 
C619     C      0.967530000000     0.745760000000     0.102870000000    -0.00267034 
C620     C      0.995470000000     0.746390000000     0.086470000000    -0.0933057  
C621     C      0.523340000000     0.746690000000     0.102930000000    -0.00302723 
C622     C      0.523310000000     0.746370000000     0.134990000000    -0.00271546 
C623     C      0.495390000000     0.745750000000     0.151410000000    -0.0893213  
C624     C      0.967490000000     0.745450000000     0.134980000000    -0.0022668  
C625     C      0.604990000000     0.516860000000     0.226530000000    -0.000568371
C626     C      0.588720000000     0.996720000000     0.245880000000    -0.0968202  
C627     C      0.605100000000     0.976700000000     0.265230000000     0.000336329
C628     C      0.637350000000     0.976300000000     0.264680000000    -0.00145338 
C629     C      0.653610000000     0.996700000000     0.245570000000    -0.0937574  
C630     C      0.637210000000     0.517230000000     0.226780000000    -0.0010824  
C631     C      0.887280000000     0.515570000000     0.222660000000    -0.00112586 
C632     C      0.903650000000     0.995530000000     0.242010000000    -0.0966793  
C633     C      0.887380000000     0.975370000000     0.261340000000     0.00044856 
C634     C      0.855160000000     0.975000000000     0.261080000000    -0.00155393 
C635     C      0.838760000000     0.995550000000     0.242300000000    -0.0939309  
C636     C      0.855020000000     0.515970000000     0.223210000000    -0.000825923
C637     C      0.975680000000     0.887350000000     0.261780000000     0.000454779
C638     C      0.995760000000     0.903580000000     0.242340000000    -0.0966588  
C639     C      0.515730000000     0.887180000000     0.222950000000    -0.00118404 
C640     C      0.516130000000     0.854930000000     0.223550000000    -0.000800823
C641     C      0.995770000000     0.838700000000     0.242730000000    -0.0939432  
C642     C      0.975310000000     0.855130000000     0.261570000000    -0.0014935  
C643     C      0.516630000000     0.604910000000     0.226090000000    -0.000700213
C644     C      0.996580000000     0.588670000000     0.245550000000    -0.0966451  
C645     C      0.976600000000     0.605060000000     0.264940000000     0.00019221 
C646     C      0.976180000000     0.637300000000     0.264340000000    -0.00129096 
C647     C      0.996510000000     0.653550000000     0.245150000000    -0.0938942  
C648     C      0.516980000000     0.637130000000     0.226290000000    -0.000910087
C649     C      0.605170000000     0.975880000000     0.012900000000     0.00323879 
C650     C      0.588820000000     0.496000000000     0.993610000000    -0.0926026  
C651     C      0.605120000000     0.516090000000     0.474250000000    -0.00134415 
C652     C      0.637360000000     0.516460000000     0.474600000000    -0.000697275
C653     C      0.653700000000     0.495970000000     0.993500000000    -0.0948553  
C654     C      0.637400000000     0.975480000000     0.012440000000     0.00345949 
C655     C      0.855150000000     0.516330000000     0.474950000000    -0.00100562 
C656     C      0.838850000000     0.496280000000     0.994360000000    -0.0944466  
C657     C      0.855200000000     0.976240000000     0.013740000000     0.00327462 
C658     C      0.887430000000     0.976620000000     0.014080000000     0.00399484 
C659     C      0.903720000000     0.496250000000     0.994240000000    -0.0926538  
C660     C      0.887380000000     0.515910000000     0.474490000000    -0.000619413
C661     C      0.515680000000     0.887200000000     0.472940000000    -0.00132955 
C662     C      0.495790000000     0.903590000000     0.492440000000    -0.0896286  
C663     C      0.975890000000     0.887340000000     0.012040000000     0.00379407 
C664     C      0.975570000000     0.855120000000     0.011870000000     0.00321121 
C665     C      0.495930000000     0.838710000000     0.992890000000    -0.0947123  
C666     C      0.516130000000     0.854950000000     0.473570000000    -0.00082514 
C667     C      0.975750000000     0.637140000000     0.475910000000    -0.00151553 
C668     C      0.496020000000     0.653560000000     0.494970000000    -0.0894899  
C669     C      0.516160000000     0.637320000000     0.014370000000     0.00388519 
C670     C      0.515720000000     0.605070000000     0.014980000000     0.00225347 
C671     C      0.495920000000     0.588670000000     0.495410000000    -0.0896036  
C672     C      0.976080000000     0.604920000000     0.475740000000     0.000553512
C673     C      0.496230000000     0.554760000000     0.994990000000     0.373975   
C674     C      0.496120000000     0.937500000000     0.992860000000     0.373945   
C675     C      0.554900000000     0.496060000000     0.493720000000     0.378048   
C676     C      0.937620000000     0.496190000000     0.494130000000     0.377953   
C677     C      0.996150000000     0.937490000000     0.742800000000     0.379135   
C678     C      0.996210000000     0.554760000000     0.745080000000     0.379282   
C679     C      0.937550000000     0.995960000000     0.742590000000     0.378982   
C680     C      0.554820000000     0.996280000000     0.745290000000     0.379449   
C681     C      0.496090000000     0.687490000000     0.994590000000     0.379938   
C682     C      0.496030000000     0.804780000000     0.493290000000     0.379335   
C683     C      0.996550000000     0.745740000000     0.935440000000     0.371734   
C684     C      0.995630000000     0.746530000000     0.552450000000     0.371968   
C685     C      0.995920000000     0.804780000000     0.743180000000     0.372854   
C686     C      0.996350000000     0.687470000000     0.744700000000     0.373075   
C687     C      0.495540000000     0.745630000000     0.685440000000     0.378194   
C688     C      0.496720000000     0.746630000000     0.802450000000     0.377852   
C689     C      0.745810000000     0.996260000000     0.552450000000     0.37223    
C690     C      0.746750000000     0.995990000000     0.935430000000     0.371963   
C691     C      0.687630000000     0.496020000000     0.493550000000     0.37923    
C692     C      0.804930000000     0.496230000000     0.494320000000     0.379197   
C693     C      0.747130000000     0.996240000000     0.802440000000     0.372362   
C694     C      0.745250000000     0.996000000000     0.685430000000     0.372184   
C695     C      0.804840000000     0.995780000000     0.742810000000     0.372903   
C696     C      0.687540000000     0.996470000000     0.745070000000     0.372885   
C697     C      0.747200000000     0.523980000000     0.885030000000    -0.00297572 
C698     C      0.747030000000     0.996010000000     0.901400000000    -0.0941044  
C699     C      0.747110000000     0.968150000000     0.884920000000    -0.00277895 
C700     C      0.747250000000     0.968260000000     0.852840000000    -0.00262256 
C701     C      0.747320000000     0.996220000000     0.836460000000    -0.0942642  
C702     C      0.747340000000     0.524080000000     0.852940000000    -0.00274992 
C703     C      0.745390000000     0.524100000000     0.602950000000    -0.00282084 
C704     C      0.745490000000     0.996240000000     0.586470000000    -0.0941351  
C705     C      0.745300000000     0.968270000000     0.602840000000    -0.00274594 
C706     C      0.745110000000     0.968170000000     0.634930000000    -0.00258604 
C707     C      0.745100000000     0.996030000000     0.651410000000    -0.0942866  
C708     C      0.745200000000     0.523990000000     0.635030000000    -0.00278439 
C709     C      0.968870000000     0.746440000000     0.884940000000    -0.00274067 
C710     C      0.996730000000     0.745890000000     0.901420000000    -0.0941491  
C711     C      0.524680000000     0.745670000000     0.885040000000    -0.00270547 
C712     C      0.524750000000     0.745990000000     0.852920000000    -0.00278774 
C713     C      0.496860000000     0.746530000000     0.836480000000    -0.0891917  
C714     C      0.968930000000     0.746750000000     0.852890000000    -0.00283956 
C715     C      0.967530000000     0.745760000000     0.602870000000    -0.00253109 
C716     C      0.995470000000     0.746390000000     0.586470000000    -0.0941877  
C717     C      0.523340000000     0.746690000000     0.602930000000    -0.00288355 
C718     C      0.523310000000     0.746370000000     0.634990000000    -0.00300788 
C719     C      0.495390000000     0.745750000000     0.651410000000    -0.089284   
C720     C      0.967490000000     0.745450000000     0.634980000000    -0.00256114 
C721     C      0.604990000000     0.516860000000     0.726530000000    -0.000600329
C722     C      0.588720000000     0.996720000000     0.745880000000    -0.0968471  
C723     C      0.605100000000     0.976700000000     0.765230000000     0.00032188 
C724     C      0.637350000000     0.976300000000     0.764680000000    -0.00146516 
C725     C      0.653610000000     0.996700000000     0.745570000000    -0.0937969  
C726     C      0.637210000000     0.517230000000     0.726780000000    -0.00110749 
C727     C      0.887280000000     0.515570000000     0.722660000000    -0.00112049 
C728     C      0.903650000000     0.995530000000     0.742000000000    -0.0967466  
C729     C      0.887380000000     0.975370000000     0.761330000000     0.000473559
C730     C      0.855160000000     0.975000000000     0.761080000000    -0.0015951  
C731     C      0.838760000000     0.995550000000     0.742300000000    -0.093954   
C732     C      0.855020000000     0.515970000000     0.723210000000    -0.000878399
C733     C      0.975680000000     0.887350000000     0.761780000000     0.000435381
C734     C      0.995760000000     0.903580000000     0.742340000000    -0.0966897  
C735     C      0.515730000000     0.887180000000     0.722950000000    -0.00121391 
C736     C      0.516130000000     0.854930000000     0.723550000000    -0.000834144
C737     C      0.995770000000     0.838700000000     0.742730000000    -0.0939872  
C738     C      0.975310000000     0.855130000000     0.761570000000    -0.00149718 
C739     C      0.516630000000     0.604910000000     0.726090000000    -0.000705347
C740     C      0.996580000000     0.588670000000     0.745540000000    -0.0966885  
C741     C      0.976600000000     0.605060000000     0.764940000000     0.000170095
C742     C      0.976180000000     0.637300000000     0.764340000000    -0.00132773 
C743     C      0.996510000000     0.653550000000     0.745150000000    -0.0939253  
C744     C      0.516980000000     0.637130000000     0.726290000000    -0.000954901
C745     C      0.605170000000     0.975880000000     0.512900000000    -0.000115051
C746     C      0.588820000000     0.496000000000     0.493610000000    -0.089543   
C747     C      0.605120000000     0.516090000000     0.974250000000    -0.00174567 
C748     C      0.637360000000     0.516460000000     0.974600000000     0.000183929
C749     C      0.653700000000     0.495970000000     0.493500000000    -0.0898526  
C750     C      0.637400000000     0.975480000000     0.512440000000    -0.00133194 
C751     C      0.855150000000     0.516330000000     0.974950000000    -0.000113537
C752     C      0.838850000000     0.496280000000     0.494360000000    -0.0894559  
C753     C      0.855200000000     0.976240000000     0.513740000000    -0.00148651 
C754     C      0.887430000000     0.976620000000     0.514080000000     0.000667354
C755     C      0.903720000000     0.496250000000     0.494240000000    -0.0895983  
C756     C      0.887380000000     0.515910000000     0.974490000000    -0.000982737
C757     C      0.515680000000     0.887200000000     0.972940000000    -0.00173084 
C758     C      0.495790000000     0.903590000000     0.992440000000    -0.0927181  
C759     C      0.975890000000     0.887340000000     0.512040000000     0.000464251
C760     C      0.975570000000     0.855120000000     0.511870000000    -0.00154721 
C761     C      0.495930000000     0.838710000000     0.492890000000    -0.0897093  
C762     C      0.516130000000     0.854950000000     0.973570000000     3.7994e-05 
C763     C      0.975750000000     0.637140000000     0.975910000000    -0.000592384
C764     C      0.496020000000     0.653560000000     0.994970000000    -0.0945113  
C765     C      0.516160000000     0.637320000000     0.514380000000    -0.000984193
C766     C      0.515720000000     0.605070000000     0.514980000000    -0.00107997 
C767     C      0.495920000000     0.588670000000     0.995410000000    -0.0926152  
C768     C      0.976080000000     0.604920000000     0.975740000000     0.000165733
H1       H      0.247160000000     0.045880000000     0.396970000000     0.0444045  
H2       H      0.247000000000     0.446200000000     0.396770000000     0.0450537  
H3       H      0.247230000000     0.446350000000     0.340900000000     0.0447603  
H4       H      0.247390000000     0.046030000000     0.341100000000     0.0446919  
H5       H      0.245510000000     0.046050000000     0.091100000000     0.045298   
H6       H      0.245350000000     0.446370000000     0.090900000000     0.0453258  
H7       H      0.245040000000     0.446220000000     0.146780000000     0.0451645  
H8       H      0.245200000000     0.045900000000     0.146970000000     0.044506   
H9       H      0.446900000000     0.246640000000     0.396780000000     0.0447912  
H10      H      0.046580000000     0.245270000000     0.396990000000     0.0446376  
H11      H      0.046680000000     0.245780000000     0.341030000000     0.0448501  
H12      H      0.447000000000     0.247140000000     0.340990000000     0.0446991  
H13      H      0.445620000000     0.245490000000     0.090930000000     0.0456086  
H14      H      0.045300000000     0.247150000000     0.091080000000     0.0449313  
H15      H      0.045250000000     0.246640000000     0.146870000000     0.0443844  
H16      H      0.445570000000     0.244990000000     0.146880000000     0.0453245  
H17      H      0.092760000000     0.032560000000     0.211480000000     0.0411345  
H18      H      0.092950000000     0.460880000000     0.280220000000     0.042301   
H19      H      0.149600000000     0.460360000000     0.279450000000     0.041696   
H20      H      0.149310000000     0.033090000000     0.211800000000     0.0417383  
H21      H      0.399430000000     0.031390000000     0.207680000000     0.0417282  
H22      H      0.399610000000     0.459670000000     0.276370000000     0.0404527  
H23      H      0.343050000000     0.459140000000     0.276050000000     0.0414325  
H24      H      0.342780000000     0.031920000000     0.208450000000     0.0418719  
H25      H      0.460020000000     0.399600000000     0.276840000000     0.0405412  
H26      H      0.031490000000     0.399300000000     0.207890000000     0.041564   
H27      H      0.032000000000     0.342660000000     0.208730000000     0.0417094  
H28      H      0.459490000000     0.343050000000     0.276610000000     0.0414181  
H29      H      0.032290000000     0.092670000000     0.211010000000     0.0411972  
H30      H      0.460860000000     0.092920000000     0.280020000000     0.0421738  
H31      H      0.460310000000     0.149560000000     0.279180000000     0.0415061  
H32      H      0.032780000000     0.149230000000     0.211250000000     0.0416951  
H33      H      0.093000000000     0.460110000000     0.027920000000     0.0428131  
H34      H      0.092920000000     0.031890000000     0.459280000000     0.0429163  
H35      H      0.149520000000     0.032380000000     0.459730000000     0.0419065  
H36      H      0.149590000000     0.459570000000     0.027290000000     0.0416307  
H37      H      0.342940000000     0.031880000000     0.459740000000     0.04133    
H38      H      0.343030000000     0.460670000000     0.028960000000     0.0412818  
H39      H      0.399650000000     0.461190000000     0.029410000000     0.0404133  
H40      H      0.399550000000     0.031310000000     0.459100000000     0.0401342  
H41      H      0.031310000000     0.399330000000     0.457760000000     0.0415876  
H42      H      0.460310000000     0.399580000000     0.027190000000     0.0408039  
H43      H      0.459860000000     0.343030000000     0.027010000000     0.0415915  
H44      H      0.031910000000     0.342690000000     0.458640000000     0.0417218  
H45      H      0.460100000000     0.149220000000     0.460710000000     0.0416286  
H46      H      0.031870000000     0.149570000000     0.029370000000     0.0417763  
H47      H      0.031300000000     0.092940000000     0.030230000000     0.0424871  
H48      H      0.460560000000     0.092690000000     0.460520000000     0.041433   
H49      H      0.247160000000     0.045880000000     0.896970000000     0.0442779  
H50      H      0.247000000000     0.446200000000     0.896770000000     0.0448738  
H51      H      0.247230000000     0.446350000000     0.840900000000     0.0446765  
H52      H      0.247390000000     0.046030000000     0.841090000000     0.0446259  
H53      H      0.245510000000     0.046050000000     0.591100000000     0.0446962  
H54      H      0.245350000000     0.446370000000     0.590910000000     0.0447967  
H55      H      0.245040000000     0.446220000000     0.646780000000     0.0450333  
H56      H      0.245200000000     0.045900000000     0.646970000000     0.0443462  
H57      H      0.446900000000     0.246640000000     0.896780000000     0.0446379  
H58      H      0.046580000000     0.245270000000     0.896990000000     0.0444833  
H59      H      0.046680000000     0.245780000000     0.841030000000     0.0447752  
H60      H      0.447000000000     0.247140000000     0.840990000000     0.0446244  
H61      H      0.445620000000     0.245490000000     0.590930000000     0.0450384  
H62      H      0.045300000000     0.247150000000     0.591080000000     0.0443668  
H63      H      0.045250000000     0.246640000000     0.646870000000     0.0442412  
H64      H      0.445570000000     0.244990000000     0.646880000000     0.0451752  
H65      H      0.092760000000     0.032560000000     0.711480000000     0.041054   
H66      H      0.092950000000     0.460880000000     0.780220000000     0.0422734  
H67      H      0.149600000000     0.460360000000     0.779450000000     0.0416538  
H68      H      0.149310000000     0.033090000000     0.711800000000     0.041638   
H69      H      0.399430000000     0.031390000000     0.707680000000     0.0416157  
H70      H      0.399610000000     0.459670000000     0.776370000000     0.0404059  
H71      H      0.343050000000     0.459140000000     0.776050000000     0.0413935  
H72      H      0.342780000000     0.031920000000     0.708450000000     0.0417649  
H73      H      0.460020000000     0.399600000000     0.776840000000     0.0405096  
H74      H      0.031490000000     0.399300000000     0.707890000000     0.0414767  
H75      H      0.032000000000     0.342660000000     0.708730000000     0.0416053  
H76      H      0.459490000000     0.343050000000     0.776610000000     0.0413744  
H77      H      0.032290000000     0.092670000000     0.711010000000     0.0411071  
H78      H      0.460860000000     0.092920000000     0.780020000000     0.0421532  
H79      H      0.460310000000     0.149560000000     0.779170000000     0.0414818  
H80      H      0.032780000000     0.149230000000     0.711250000000     0.0415994  
H81      H      0.093000000000     0.460110000000     0.527920000000     0.0426301  
H82      H      0.092920000000     0.031890000000     0.959280000000     0.0427056  
H83      H      0.149520000000     0.032380000000     0.959730000000     0.0413971  
H84      H      0.149590000000     0.459570000000     0.527290000000     0.0415918  
H85      H      0.342940000000     0.031880000000     0.959740000000     0.0408526  
H86      H      0.343030000000     0.460670000000     0.528960000000     0.0412808  
H87      H      0.399650000000     0.461190000000     0.529410000000     0.0403563  
H88      H      0.399550000000     0.031310000000     0.959100000000     0.0400149  
H89      H      0.031310000000     0.399330000000     0.957760000000     0.0413716  
H90      H      0.460310000000     0.399580000000     0.527190000000     0.0407394  
H91      H      0.459860000000     0.343030000000     0.527010000000     0.0415845  
H92      H      0.031910000000     0.342690000000     0.958640000000     0.0412071  
H93      H      0.460100000000     0.149220000000     0.960710000000     0.0411405  
H94      H      0.031870000000     0.149570000000     0.529370000000     0.0417566  
H95      H      0.031300000000     0.092940000000     0.530230000000     0.0422907  
H96      H      0.460560000000     0.092690000000     0.960520000000     0.0413126  
H97      H      0.247160000000     0.545880000000     0.396970000000     0.0448277  
H98      H      0.247000000000     0.946200000000     0.396770000000     0.0448468  
H99      H      0.247230000000     0.946350000000     0.340900000000     0.0445817  
H100     H      0.247390000000     0.546030000000     0.341100000000     0.0450606  
H101     H      0.245510000000     0.546050000000     0.091100000000     0.0456587  
H102     H      0.245350000000     0.946370000000     0.090900000000     0.0451546  
H103     H      0.245040000000     0.946220000000     0.146780000000     0.0449526  
H104     H      0.245200000000     0.545900000000     0.146970000000     0.0449328  
H105     H      0.446900000000     0.746650000000     0.396780000000     0.0447442  
H106     H      0.046580000000     0.745270000000     0.396990000000     0.0445976  
H107     H      0.046680000000     0.745780000000     0.341030000000     0.0447853  
H108     H      0.447000000000     0.747150000000     0.340990000000     0.0446722  
H109     H      0.445620000000     0.745490000000     0.090930000000     0.045562   
H110     H      0.045300000000     0.747150000000     0.091080000000     0.044892   
H111     H      0.045250000000     0.746640000000     0.146870000000     0.0443431  
H112     H      0.445570000000     0.744990000000     0.146880000000     0.0452682  
H113     H      0.092760000000     0.532560000000     0.211480000000     0.0411535  
H114     H      0.092950000000     0.960880000000     0.280220000000     0.041631   
H115     H      0.149600000000     0.960360000000     0.279450000000     0.0414901  
H116     H      0.149310000000     0.533080000000     0.211800000000     0.0416169  
H117     H      0.399430000000     0.531390000000     0.207680000000     0.0417142  
H118     H      0.399610000000     0.959670000000     0.276370000000     0.0397925  
H119     H      0.343050000000     0.959140000000     0.276050000000     0.0412241  
H120     H      0.342780000000     0.531920000000     0.208450000000     0.0417144  
H121     H      0.460020000000     0.899600000000     0.276840000000     0.0404474  
H122     H      0.031490000000     0.899300000000     0.207890000000     0.0414393  
H123     H      0.032000000000     0.842660000000     0.208730000000     0.0416745  
H124     H      0.459490000000     0.843050000000     0.276610000000     0.0413789  
H125     H      0.032290000000     0.592670000000     0.211010000000     0.0404527  
H126     H      0.460860000000     0.592920000000     0.280020000000     0.0413558  
H127     H      0.460310000000     0.649560000000     0.279180000000     0.0413707  
H128     H      0.032780000000     0.649230000000     0.211250000000     0.0415783  
H129     H      0.093000000000     0.960110000000     0.027920000000     0.0421502  
H130     H      0.092920000000     0.531890000000     0.459280000000     0.0429043  
H131     H      0.149520000000     0.532380000000     0.459730000000     0.0417506  
H132     H      0.149590000000     0.959570000000     0.027290000000     0.0414355  
H133     H      0.342940000000     0.531880000000     0.459740000000     0.0411633  
H134     H      0.343030000000     0.960670000000     0.028960000000     0.0410707  
H135     H      0.399650000000     0.961190000000     0.029410000000     0.0397365  
H136     H      0.399550000000     0.531310000000     0.459100000000     0.040142   
H137     H      0.031310000000     0.899330000000     0.457760000000     0.0414729  
H138     H      0.460310000000     0.899580000000     0.027190000000     0.0407248  
H139     H      0.459860000000     0.843030000000     0.027010000000     0.0415683  
H140     H      0.031910000000     0.842690000000     0.458640000000     0.0416721  
H141     H      0.460100000000     0.649220000000     0.460710000000     0.0415308  
H142     H      0.031870000000     0.649570000000     0.029370000000     0.0416441  
H143     H      0.031300000000     0.592940000000     0.030230000000     0.0416664  
H144     H      0.460560000000     0.592680000000     0.460520000000     0.0406638  
H145     H      0.247160000000     0.545880000000     0.896970000000     0.0447007  
H146     H      0.247000000000     0.946200000000     0.896770000000     0.0446672  
H147     H      0.247230000000     0.946350000000     0.840900000000     0.0444982  
H148     H      0.247390000000     0.546030000000     0.841090000000     0.0449933  
H149     H      0.245510000000     0.546050000000     0.591100000000     0.0450559  
H150     H      0.245350000000     0.946370000000     0.590910000000     0.0446255  
H151     H      0.245040000000     0.946220000000     0.646780000000     0.0448209  
H152     H      0.245200000000     0.545900000000     0.646970000000     0.0447731  
H153     H      0.446900000000     0.746650000000     0.896780000000     0.044591   
H154     H      0.046580000000     0.745270000000     0.896990000000     0.0444434  
H155     H      0.046680000000     0.745780000000     0.841030000000     0.0447104  
H156     H      0.447000000000     0.747150000000     0.840990000000     0.0445976  
H157     H      0.445620000000     0.745490000000     0.590930000000     0.044991   
H158     H      0.045300000000     0.747150000000     0.591080000000     0.0443268  
H159     H      0.045250000000     0.746640000000     0.646870000000     0.0441996  
H160     H      0.445570000000     0.744990000000     0.646880000000     0.0451186  
H161     H      0.092760000000     0.532560000000     0.711480000000     0.0410719  
H162     H      0.092950000000     0.960880000000     0.780220000000     0.0416034  
H163     H      0.149600000000     0.960360000000     0.779450000000     0.0414482  
H164     H      0.149310000000     0.533080000000     0.711800000000     0.0415156  
H165     H      0.399430000000     0.531390000000     0.707680000000     0.0416014  
H166     H      0.399610000000     0.959670000000     0.776370000000     0.0397455  
H167     H      0.343050000000     0.959140000000     0.776050000000     0.0411856  
H168     H      0.342780000000     0.531920000000     0.708450000000     0.0416058  
H169     H      0.460020000000     0.899600000000     0.776840000000     0.0404159  
H170     H      0.031490000000     0.899300000000     0.707890000000     0.0413519  
H171     H      0.032000000000     0.842660000000     0.708730000000     0.0415703  
H172     H      0.459490000000     0.843050000000     0.776610000000     0.0413352  
H173     H      0.032290000000     0.592670000000     0.711010000000     0.0403614  
H174     H      0.460860000000     0.592920000000     0.780020000000     0.0413351  
H175     H      0.460310000000     0.649560000000     0.779170000000     0.0413465  
H176     H      0.032780000000     0.649230000000     0.711250000000     0.0414823  
H177     H      0.093000000000     0.960110000000     0.527920000000     0.0419656  
H178     H      0.092920000000     0.531890000000     0.959280000000     0.0426925  
H179     H      0.149520000000     0.532380000000     0.959730000000     0.04124    
H180     H      0.149590000000     0.959570000000     0.527290000000     0.0413954  
H181     H      0.342940000000     0.531880000000     0.959740000000     0.0406847  
H182     H      0.343030000000     0.960670000000     0.528960000000     0.0410686  
H183     H      0.399650000000     0.961190000000     0.529410000000     0.0396778  
H184     H      0.399550000000     0.531310000000     0.959100000000     0.0400217  
H185     H      0.031310000000     0.899330000000     0.957760000000     0.0412575  
H186     H      0.460310000000     0.899580000000     0.527190000000     0.0406599  
H187     H      0.459860000000     0.843030000000     0.527010000000     0.0415608  
H188     H      0.031910000000     0.842690000000     0.958640000000     0.0411578  
H189     H      0.460100000000     0.649220000000     0.960710000000     0.0410427  
H190     H      0.031870000000     0.649570000000     0.529370000000     0.0416238  
H191     H      0.031300000000     0.592940000000     0.530230000000     0.0414672  
H192     H      0.460560000000     0.592680000000     0.960520000000     0.0405439  
H193     H      0.747160000000     0.045880000000     0.396970000000     0.044359   
H194     H      0.747010000000     0.446200000000     0.396770000000     0.045009   
H195     H      0.747230000000     0.446350000000     0.340900000000     0.0447193  
H196     H      0.747390000000     0.046030000000     0.341100000000     0.0446444  
H197     H      0.745510000000     0.046050000000     0.091100000000     0.0452556  
H198     H      0.745350000000     0.446370000000     0.090900000000     0.0452839  
H199     H      0.745040000000     0.446220000000     0.146780000000     0.0451205  
H200     H      0.745200000000     0.045900000000     0.146970000000     0.044465   
H201     H      0.946900000000     0.246640000000     0.396780000000     0.0446017  
H202     H      0.546580000000     0.245270000000     0.396990000000     0.045015   
H203     H      0.546680000000     0.245780000000     0.341030000000     0.0451745  
H204     H      0.947000000000     0.247140000000     0.340990000000     0.0445546  
H205     H      0.945620000000     0.245490000000     0.090930000000     0.0453989  
H206     H      0.545300000000     0.247150000000     0.091080000000     0.0453514  
H207     H      0.545250000000     0.246640000000     0.146870000000     0.0448329  
H208     H      0.945570000000     0.244990000000     0.146880000000     0.0450966  
H209     H      0.592760000000     0.032560000000     0.211480000000     0.0404163  
H210     H      0.592950000000     0.460880000000     0.280220000000     0.0414599  
H211     H      0.649600000000     0.460360000000     0.279450000000     0.0415613  
H212     H      0.649320000000     0.033090000000     0.211800000000     0.041635   
H213     H      0.899430000000     0.031390000000     0.207680000000     0.0415862  
H214     H      0.899610000000     0.459670000000     0.276370000000     0.0403799  
H215     H      0.843060000000     0.459140000000     0.276050000000     0.0414096  
H216     H      0.842770000000     0.031920000000     0.208450000000     0.0418279  
H217     H      0.960020000000     0.399600000000     0.276840000000     0.0398799  
H218     H      0.531490000000     0.399300000000     0.207890000000     0.0415552  
H219     H      0.532000000000     0.342660000000     0.208730000000     0.0415627  
H220     H      0.959490000000     0.343050000000     0.276610000000     0.0412151  
H221     H      0.532290000000     0.092670000000     0.211010000000     0.0412525  
H222     H      0.960860000000     0.092920000000     0.280020000000     0.0415354  
H223     H      0.960310000000     0.149560000000     0.279180000000     0.0413327  
H224     H      0.532780000000     0.149230000000     0.211250000000     0.0415896  
H225     H      0.593000000000     0.460110000000     0.027920000000     0.0419976  
H226     H      0.592920000000     0.031890000000     0.459280000000     0.0420671  
H227     H      0.649520000000     0.032380000000     0.459730000000     0.0417693  
H228     H      0.649590000000     0.459570000000     0.027290000000     0.0415103  
H229     H      0.842940000000     0.031880000000     0.459740000000     0.041308   
H230     H      0.843030000000     0.460670000000     0.028960000000     0.0412454  
H231     H      0.899650000000     0.461190000000     0.029410000000     0.0403262  
H232     H      0.899550000000     0.031310000000     0.459100000000     0.0400709  
H233     H      0.531310000000     0.399330000000     0.457760000000     0.0415725  
H234     H      0.960310000000     0.399580000000     0.027190000000     0.0401294  
H235     H      0.959860000000     0.343030000000     0.027010000000     0.0413955  
H236     H      0.531910000000     0.342690000000     0.458640000000     0.0415408  
H237     H      0.960100000000     0.149220000000     0.460710000000     0.041458   
H238     H      0.531870000000     0.149570000000     0.029370000000     0.0416537  
H239     H      0.531300000000     0.092940000000     0.030230000000     0.0425118  
H240     H      0.960560000000     0.092690000000     0.460520000000     0.040778   
H241     H      0.747160000000     0.045880000000     0.896970000000     0.0442325  
H242     H      0.747010000000     0.446200000000     0.896770000000     0.0448291  
H243     H      0.747230000000     0.446350000000     0.840900000000     0.0446354  
H244     H      0.747390000000     0.046030000000     0.841090000000     0.0445785  
H245     H      0.745510000000     0.046050000000     0.591100000000     0.0446529  
H246     H      0.745350000000     0.446370000000     0.590910000000     0.0447539  
H247     H      0.745040000000     0.446220000000     0.646780000000     0.0449889  
H248     H      0.745200000000     0.045900000000     0.646970000000     0.044305   
H249     H      0.946900000000     0.246640000000     0.896780000000     0.0444487  
H250     H      0.546580000000     0.245270000000     0.896990000000     0.0448601  
H251     H      0.546680000000     0.245780000000     0.841030000000     0.0450995  
H252     H      0.947000000000     0.247140000000     0.840990000000     0.0444801  
H253     H      0.945620000000     0.245490000000     0.590930000000     0.0448287  
H254     H      0.545300000000     0.247150000000     0.591080000000     0.0447863  
H255     H      0.545250000000     0.246640000000     0.646870000000     0.0446898  
H256     H      0.945570000000     0.244990000000     0.646880000000     0.0449468  
H257     H      0.592760000000     0.032560000000     0.711480000000     0.0403347  
H258     H      0.592950000000     0.460880000000     0.780220000000     0.041432   
H259     H      0.649600000000     0.460360000000     0.779450000000     0.0415191  
H260     H      0.649320000000     0.033090000000     0.711800000000     0.0415343  
H261     H      0.899430000000     0.031390000000     0.707680000000     0.0414735  
H262     H      0.899610000000     0.459670000000     0.776370000000     0.0403332  
H263     H      0.843060000000     0.459140000000     0.776050000000     0.0413706  
H264     H      0.842770000000     0.031920000000     0.708450000000     0.0417207  
H265     H      0.960020000000     0.399600000000     0.776840000000     0.0398482  
H266     H      0.531490000000     0.399300000000     0.707890000000     0.0414667  
H267     H      0.532000000000     0.342660000000     0.708730000000     0.0414575  
H268     H      0.959490000000     0.343050000000     0.776610000000     0.0411715  
H269     H      0.532290000000     0.092670000000     0.711010000000     0.0411624  
H270     H      0.960860000000     0.092920000000     0.780020000000     0.0415147  
H271     H      0.960310000000     0.149560000000     0.779170000000     0.0413089  
H272     H      0.532780000000     0.149230000000     0.711250000000     0.0414927  
H273     H      0.593000000000     0.460110000000     0.527920000000     0.0418117  
H274     H      0.592920000000     0.031890000000     0.959280000000     0.041857   
H275     H      0.649520000000     0.032380000000     0.959730000000     0.0412593  
H276     H      0.649590000000     0.459570000000     0.527290000000     0.0414706  
H277     H      0.842940000000     0.031880000000     0.959740000000     0.040831   
H278     H      0.843030000000     0.460670000000     0.528960000000     0.0412439  
H279     H      0.899650000000     0.461190000000     0.529410000000     0.0402687  
H280     H      0.899550000000     0.031310000000     0.959100000000     0.039952   
H281     H      0.531310000000     0.399330000000     0.957760000000     0.0413553  
H282     H      0.960310000000     0.399580000000     0.527190000000     0.0400632  
H283     H      0.959860000000     0.343030000000     0.527010000000     0.0413873  
H284     H      0.531910000000     0.342690000000     0.958640000000     0.0410247  
H285     H      0.960100000000     0.149220000000     0.960710000000     0.0409713  
H286     H      0.531870000000     0.149570000000     0.529370000000     0.0416334  
H287     H      0.531300000000     0.092940000000     0.530230000000     0.0423154  
H288     H      0.960560000000     0.092690000000     0.960520000000     0.0406593  
H289     H      0.747160000000     0.545880000000     0.396970000000     0.0447839  
H290     H      0.747000000000     0.946200000000     0.396770000000     0.0448025  
H291     H      0.747230000000     0.946350000000     0.340900000000     0.0445401  
H292     H      0.747390000000     0.546030000000     0.341100000000     0.0450156  
H293     H      0.745510000000     0.546050000000     0.091100000000     0.0456177  
H294     H      0.745350000000     0.946370000000     0.090900000000     0.0451132  
H295     H      0.745040000000     0.946220000000     0.146780000000     0.0449081  
H296     H      0.745200000000     0.545900000000     0.146970000000     0.0448946  
H297     H      0.946900000000     0.746650000000     0.396780000000     0.044568   
H298     H      0.546580000000     0.745270000000     0.396990000000     0.0449627  
H299     H      0.546680000000     0.745780000000     0.341030000000     0.0451405  
H300     H      0.947000000000     0.747150000000     0.340990000000     0.044493   
H301     H      0.945620000000     0.745490000000     0.090930000000     0.0453503  
H302     H      0.545300000000     0.747150000000     0.091080000000     0.045313   
H303     H      0.545250000000     0.746640000000     0.146870000000     0.0447923  
H304     H      0.945570000000     0.744990000000     0.146880000000     0.0450488  
H305     H      0.592760000000     0.532560000000     0.211480000000     0.0404293  
H306     H      0.592950000000     0.960880000000     0.280220000000     0.0407885  
H307     H      0.649600000000     0.960360000000     0.279450000000     0.0413524  
H308     H      0.649310000000     0.533080000000     0.211800000000     0.0415135  
H309     H      0.899430000000     0.531390000000     0.207680000000     0.0415678  
H310     H      0.899610000000     0.959670000000     0.276370000000     0.0397249  
H311     H      0.843050000000     0.959140000000     0.276050000000     0.041202   
H312     H      0.842780000000     0.531920000000     0.208450000000     0.0416785  
H313     H      0.960020000000     0.899600000000     0.276840000000     0.0398088  
H314     H      0.531490000000     0.899300000000     0.207890000000     0.0414281  
H315     H      0.532000000000     0.842660000000     0.208730000000     0.0415347  
H316     H      0.959490000000     0.843050000000     0.276610000000     0.0411855  
H317     H      0.532280000000     0.592670000000     0.211010000000     0.0405416  
H318     H      0.960860000000     0.592920000000     0.280020000000     0.0407036  
H319     H      0.960310000000     0.649560000000     0.279180000000     0.0412058  
H320     H      0.532780000000     0.649230000000     0.211250000000     0.0414541  
H321     H      0.593000000000     0.960110000000     0.027920000000     0.041337   
H322     H      0.592920000000     0.531890000000     0.459280000000     0.0420528  
H323     H      0.649520000000     0.532380000000     0.459730000000     0.0416143  
H324     H      0.649590000000     0.959570000000     0.027290000000     0.0413167  
H325     H      0.842940000000     0.531880000000     0.459740000000     0.0411442  
H326     H      0.843030000000     0.960670000000     0.028960000000     0.0410372  
H327     H      0.899650000000     0.961190000000     0.029410000000     0.0396513  
H328     H      0.899550000000     0.531310000000     0.459100000000     0.0400791  
H329     H      0.531310000000     0.899330000000     0.457760000000     0.041454   
H330     H      0.960310000000     0.899580000000     0.027190000000     0.040063   
H331     H      0.959860000000     0.843030000000     0.027010000000     0.0413547  
H332     H      0.531920000000     0.842690000000     0.458640000000     0.041497   
H333     H      0.960100000000     0.649220000000     0.460710000000     0.0413353  
H334     H      0.531870000000     0.649570000000     0.029370000000     0.0415498  
H335     H      0.531300000000     0.592940000000     0.030230000000     0.0416686  
H336     H      0.960560000000     0.592680000000     0.460520000000     0.0400562  
H337     H      0.747160000000     0.545880000000     0.896970000000     0.044657   
H338     H      0.747000000000     0.946200000000     0.896770000000     0.0446231  
H339     H      0.747230000000     0.946350000000     0.840900000000     0.0444565  
H340     H      0.747390000000     0.546030000000     0.841090000000     0.0449484  
H341     H      0.745510000000     0.546050000000     0.591100000000     0.045014   
H342     H      0.745350000000     0.946370000000     0.590910000000     0.0445832  
H343     H      0.745040000000     0.946220000000     0.646780000000     0.0447762  
H344     H      0.745200000000     0.545900000000     0.646970000000     0.0447346  
H345     H      0.946900000000     0.746650000000     0.896780000000     0.0444151  
H346     H      0.546580000000     0.745270000000     0.896990000000     0.0448079  
H347     H      0.546680000000     0.745780000000     0.841030000000     0.0450655  
H348     H      0.947000000000     0.747150000000     0.840990000000     0.0444186  
H349     H      0.945620000000     0.745490000000     0.590930000000     0.0447792  
H350     H      0.545300000000     0.747150000000     0.591080000000     0.0447471  
H351     H      0.545250000000     0.746640000000     0.646870000000     0.044649   
H352     H      0.945570000000     0.744990000000     0.646880000000     0.0448986  
H353     H      0.592760000000     0.532560000000     0.711480000000     0.0403465  
H354     H      0.592950000000     0.960880000000     0.780220000000     0.0407607  
H355     H      0.649600000000     0.960360000000     0.779450000000     0.0413105  
H356     H      0.649310000000     0.533080000000     0.711800000000     0.0414118  
H357     H      0.899430000000     0.531390000000     0.707680000000     0.0414549  
H358     H      0.899610000000     0.959670000000     0.776370000000     0.039678   
H359     H      0.843050000000     0.959140000000     0.776050000000     0.0411636  
H360     H      0.842780000000     0.531920000000     0.708450000000     0.0415698  
H361     H      0.960020000000     0.899600000000     0.776840000000     0.0397771  
H362     H      0.531490000000     0.899300000000     0.707890000000     0.0413395  
H363     H      0.532000000000     0.842660000000     0.708730000000     0.0414294  
H364     H      0.959490000000     0.843050000000     0.776610000000     0.041142   
H365     H      0.532280000000     0.592670000000     0.711010000000     0.0404503  
H366     H      0.960860000000     0.592920000000     0.780020000000     0.0406829  
H367     H      0.960310000000     0.649560000000     0.779170000000     0.0411822  
H368     H      0.532780000000     0.649230000000     0.711250000000     0.0413567  
H369     H      0.593000000000     0.960110000000     0.527920000000     0.0411496  
H370     H      0.592920000000     0.531890000000     0.959280000000     0.0418416  
H371     H      0.649520000000     0.532380000000     0.959730000000     0.0411024  
H372     H      0.649590000000     0.959570000000     0.527290000000     0.0412759  
H373     H      0.842940000000     0.531880000000     0.959740000000     0.040666   
H374     H      0.843030000000     0.960670000000     0.528960000000     0.0410347  
H375     H      0.899650000000     0.961190000000     0.529410000000     0.0395922  
H376     H      0.899550000000     0.531310000000     0.959100000000     0.0399592  
H377     H      0.531310000000     0.899330000000     0.957760000000     0.0412374  
H378     H      0.960310000000     0.899580000000     0.527190000000     0.0399965  
H379     H      0.959860000000     0.843030000000     0.527010000000     0.041346   
H380     H      0.531920000000     0.842690000000     0.958640000000     0.0409815  
H381     H      0.960100000000     0.649220000000     0.960710000000     0.0408481  
H382     H      0.531870000000     0.649570000000     0.529370000000     0.0415289  
H383     H      0.531300000000     0.592940000000     0.530230000000     0.0414699  
H384     H      0.960560000000     0.592680000000     0.960520000000     0.0399389  
Ni1      Ni     0.996350000000     0.995480000000     0.021360000000     0.987201   
Ni2      Ni     0.996160000000     0.496770000000     0.466490000000     0.990085   
Ni3      Ni     0.495410000000     0.495450000000     0.271380000000     0.995516   
Ni4      Ni     0.496960000000     0.496800000000     0.216510000000     0.996076   
Ni5      Ni     0.468550000000     0.246120000000     0.493760000000     0.995551   
Ni6      Ni     0.023610000000     0.246150000000     0.994130000000     0.993833   
Ni7      Ni     0.023670000000     0.246230000000     0.243540000000     0.998667   
Ni8      Ni     0.468600000000     0.246020000000     0.244350000000     0.995034   
Ni9      Ni     0.246230000000     0.023670000000     0.993710000000     0.995066   
Ni10     Ni     0.246330000000     0.468580000000     0.494160000000     0.995221   
Ni11     Ni     0.246020000000     0.468590000000     0.244160000000     0.995115   
Ni12     Ni     0.246350000000     0.023660000000     0.243720000000     0.998671   
Ni13     Ni     0.996350000000     0.995480000000     0.521360000000     0.984565   
Ni14     Ni     0.996160000000     0.496770000000     0.966490000000     0.985326   
Ni15     Ni     0.495410000000     0.495450000000     0.771380000000     0.99557    
Ni16     Ni     0.496960000000     0.496800000000     0.716510000000     0.995957   
Ni17     Ni     0.468550000000     0.246120000000     0.993760000000     0.991685   
Ni18     Ni     0.023610000000     0.246150000000     0.494130000000     0.997709   
Ni19     Ni     0.023670000000     0.246230000000     0.743540000000     0.998607   
Ni20     Ni     0.468600000000     0.246020000000     0.744350000000     0.994964   
Ni21     Ni     0.246230000000     0.023670000000     0.493710000000     0.99885    
Ni22     Ni     0.246330000000     0.468580000000     0.994160000000     0.991254   
Ni23     Ni     0.246020000000     0.468590000000     0.744160000000     0.994849   
Ni24     Ni     0.246350000000     0.023660000000     0.743720000000     0.998643   
Ni25     Ni     0.996350000000     0.495480000000     0.021360000000     0.992644   
Ni26     Ni     0.996160000000     0.996770000000     0.466490000000     0.98471    
Ni27     Ni     0.495410000000     0.995450000000     0.271380000000     0.990131   
Ni28     Ni     0.496960000000     0.996800000000     0.216510000000     0.990301   
Ni29     Ni     0.468550000000     0.746120000000     0.493760000000     0.99558    
Ni30     Ni     0.023610000000     0.746150000000     0.994130000000     0.993897   
Ni31     Ni     0.023670000000     0.746230000000     0.243540000000     0.998899   
Ni32     Ni     0.468590000000     0.746020000000     0.244350000000     0.995073   
Ni33     Ni     0.246230000000     0.523670000000     0.993710000000     0.991731   
Ni34     Ni     0.246330000000     0.968590000000     0.494160000000     0.988411   
Ni35     Ni     0.246020000000     0.968590000000     0.244160000000     0.98847    
Ni36     Ni     0.246350000000     0.523660000000     0.243720000000     0.995247   
Ni37     Ni     0.996350000000     0.495480000000     0.521360000000     0.99002    
Ni38     Ni     0.996160000000     0.996770000000     0.966490000000     0.979973   
Ni39     Ni     0.495410000000     0.995450000000     0.771380000000     0.990186   
Ni40     Ni     0.496960000000     0.996800000000     0.716510000000     0.990178   
Ni41     Ni     0.468550000000     0.746120000000     0.993760000000     0.991715   
Ni42     Ni     0.023610000000     0.746150000000     0.494130000000     0.997772   
Ni43     Ni     0.023670000000     0.746230000000     0.743540000000     0.998838   
Ni44     Ni     0.468590000000     0.746020000000     0.744350000000     0.995003   
Ni45     Ni     0.246230000000     0.523670000000     0.493710000000     0.995519   
Ni46     Ni     0.246330000000     0.968590000000     0.994160000000     0.98447    
Ni47     Ni     0.246020000000     0.968590000000     0.744160000000     0.988202   
Ni48     Ni     0.246350000000     0.523660000000     0.743720000000     0.995216   
Ni49     Ni     0.496350000000     0.995480000000     0.021360000000     0.992753   
Ni50     Ni     0.496160000000     0.496770000000     0.466490000000     0.995476   
Ni51     Ni     0.995410000000     0.495450000000     0.271380000000     0.990174   
Ni52     Ni     0.996960000000     0.496800000000     0.216510000000     0.990444   
Ni53     Ni     0.968550000000     0.246120000000     0.493760000000     0.988781   
Ni54     Ni     0.523610000000     0.246150000000     0.994130000000     0.990185   
Ni55     Ni     0.523670000000     0.246230000000     0.243540000000     0.995007   
Ni56     Ni     0.968600000000     0.246020000000     0.244350000000     0.988246   
Ni57     Ni     0.746230000000     0.023670000000     0.993710000000     0.995065   
Ni58     Ni     0.746330000000     0.468580000000     0.494160000000     0.995451   
Ni59     Ni     0.746020000000     0.468590000000     0.244160000000     0.995182   
Ni60     Ni     0.746350000000     0.023660000000     0.243720000000     0.998674   
Ni61     Ni     0.496350000000     0.995480000000     0.521360000000     0.990131   
Ni62     Ni     0.496160000000     0.496770000000     0.966490000000     0.990697   
Ni63     Ni     0.995410000000     0.495450000000     0.771380000000     0.990228   
Ni64     Ni     0.996960000000     0.496800000000     0.716510000000     0.99032    
Ni65     Ni     0.968550000000     0.246120000000     0.993760000000     0.984938   
Ni66     Ni     0.523610000000     0.246150000000     0.494130000000     0.994067   
Ni67     Ni     0.523670000000     0.246230000000     0.743540000000     0.994943   
Ni68     Ni     0.968600000000     0.246020000000     0.744350000000     0.988172   
Ni69     Ni     0.746230000000     0.023670000000     0.493710000000     0.998851   
Ni70     Ni     0.746330000000     0.468580000000     0.994160000000     0.991483   
Ni71     Ni     0.746020000000     0.468590000000     0.744160000000     0.994917   
Ni72     Ni     0.746350000000     0.023660000000     0.743720000000     0.998646   
Ni73     Ni     0.496350000000     0.495480000000     0.021360000000     0.998391   
Ni74     Ni     0.496160000000     0.996770000000     0.466490000000     0.990134   
Ni75     Ni     0.995410000000     0.995450000000     0.271380000000     0.984785   
Ni76     Ni     0.996960000000     0.996800000000     0.216510000000     0.984671   
Ni77     Ni     0.968550000000     0.746120000000     0.493760000000     0.988768   
Ni78     Ni     0.523610000000     0.746150000000     0.994130000000     0.99014    
Ni79     Ni     0.523670000000     0.746230000000     0.243540000000     0.99536    
Ni80     Ni     0.968600000000     0.746020000000     0.244350000000     0.988223   
Ni81     Ni     0.746230000000     0.523670000000     0.993710000000     0.991481   
Ni82     Ni     0.746330000000     0.968590000000     0.494160000000     0.988386   
Ni83     Ni     0.746020000000     0.968590000000     0.244160000000     0.988437   
Ni84     Ni     0.746350000000     0.523660000000     0.243720000000     0.994836   
Ni85     Ni     0.496350000000     0.495480000000     0.521360000000     0.995782   
Ni86     Ni     0.496160000000     0.996770000000     0.966490000000     0.985377   
Ni87     Ni     0.995410000000     0.995450000000     0.771380000000     0.984842   
Ni88     Ni     0.996960000000     0.996800000000     0.716510000000     0.984543   
Ni89     Ni     0.968550000000     0.746120000000     0.993760000000     0.984925   
Ni90     Ni     0.523610000000     0.746150000000     0.494130000000     0.994022   
Ni91     Ni     0.523670000000     0.746230000000     0.743540000000     0.995296   
Ni92     Ni     0.968600000000     0.746020000000     0.744350000000     0.988149   
Ni93     Ni     0.746230000000     0.523670000000     0.493710000000     0.99527    
Ni94     Ni     0.746330000000     0.968590000000     0.994160000000     0.984444   
Ni95     Ni     0.746020000000     0.968590000000     0.744160000000     0.988169   
Ni96     Ni     0.746350000000     0.523660000000     0.743720000000     0.994805   
O1       O      0.497440000000     0.039760000000     0.020330000000    -0.423778   
O2       O      0.995190000000     0.451490000000     0.018710000000    -0.432738   
O3       O      0.040490000000     0.994400000000     0.019340000000    -0.42649    
O4       O      0.452190000000     0.496210000000     0.019710000000    -0.429902   
O5       O      0.452020000000     0.996140000000     0.468450000000    -0.435111   
O6       O      0.040320000000     0.497760000000     0.468200000000    -0.428792   
O7       O      0.497180000000     0.452490000000     0.467520000000    -0.432394   
O8       O      0.995110000000     0.040760000000     0.469140000000    -0.431276   
O9       O      0.995270000000     0.451440000000     0.268680000000    -0.436029   
O10      O      0.495210000000     0.039740000000     0.270410000000    -0.427535   
O11      O      0.451410000000     0.495200000000     0.268520000000    -0.435144   
O12      O      0.039710000000     0.995330000000     0.270570000000    -0.428324   
O13      O      0.040960000000     0.497040000000     0.219360000000    -0.430474   
O14      O      0.452660000000     0.996910000000     0.217310000000    -0.433514   
O15      O      0.997100000000     0.040810000000     0.219200000000    -0.43175    
O16      O      0.497160000000     0.452510000000     0.217480000000    -0.432435   
O17      O      0.470400000000     0.201980000000     0.993150000000    -0.434816   
O18      O      0.470340000000     0.290260000000     0.494400000000    -0.434272   
O19      O      0.470770000000     0.246610000000     0.449820000000    -0.435141   
O20      O      0.470040000000     0.245630000000     0.037750000000    -0.431193   
O21      O      0.021400000000     0.247350000000     0.038050000000    -0.426788   
O22      O      0.022130000000     0.244950000000     0.450160000000    -0.429517   
O23      O      0.021760000000     0.290300000000     0.992620000000    -0.429255   
O24      O      0.021800000000     0.201990000000     0.495600000000    -0.428435   
O25      O      0.021710000000     0.290370000000     0.242850000000    -0.428771   
O26      O      0.022020000000     0.202060000000     0.243840000000    -0.428724   
O27      O      0.021370000000     0.245800000000     0.199700000000    -0.43158    
O28      O      0.022280000000     0.246630000000     0.287630000000    -0.42832    
O29      O      0.470900000000     0.246490000000     0.288180000000    -0.436615   
O30      O      0.469990000000     0.245580000000     0.200260000000    -0.433428   
O31      O      0.470570000000     0.201870000000     0.245070000000    -0.433745   
O32      O      0.470250000000     0.290190000000     0.244010000000    -0.43373    
O33      O      0.245910000000     0.021910000000     0.037780000000    -0.425384   
O34      O      0.246560000000     0.021720000000     0.449850000000    -0.431495   
O35      O      0.202080000000     0.021780000000     0.993200000000    -0.429581   
O36      O      0.290400000000     0.021930000000     0.493800000000    -0.428891   
O37      O      0.290490000000     0.470470000000     0.994690000000    -0.434839   
O38      O      0.202170000000     0.470320000000     0.494050000000    -0.434025   
O39      O      0.246670000000     0.470340000000     0.450090000000    -0.4338     
O40      O      0.245990000000     0.470530000000     0.038020000000    -0.433013   
O41      O      0.246790000000     0.470520000000     0.288010000000    -0.43632    
O42      O      0.245280000000     0.470350000000     0.200100000000    -0.433575   
O43      O      0.290190000000     0.470140000000     0.243560000000    -0.433759   
O44      O      0.201880000000     0.470650000000     0.245170000000    -0.433676   
O45      O      0.202190000000     0.022110000000     0.244310000000    -0.428787   
O46      O      0.290500000000     0.021600000000     0.242710000000    -0.428631   
O47      O      0.245590000000     0.021730000000     0.199860000000    -0.431231   
O48      O      0.247090000000     0.021900000000     0.287780000000    -0.428703   
O49      O      0.497440000000     0.039760000000     0.520330000000    -0.427334   
O50      O      0.995190000000     0.451490000000     0.518710000000    -0.436189   
O51      O      0.040490000000     0.994400000000     0.519340000000    -0.429972   
O52      O      0.452190000000     0.496210000000     0.519710000000    -0.433436   
O53      O      0.452020000000     0.996140000000     0.968450000000    -0.434026   
O54      O      0.040320000000     0.497760000000     0.968200000000    -0.427705   
O55      O      0.497180000000     0.452490000000     0.967520000000    -0.431346   
O56      O      0.995110000000     0.040760000000     0.969140000000    -0.430142   
O57      O      0.995270000000     0.451440000000     0.768680000000    -0.436043   
O58      O      0.495210000000     0.039740000000     0.770410000000    -0.427545   
O59      O      0.451410000000     0.495200000000     0.768520000000    -0.435161   
O60      O      0.039710000000     0.995330000000     0.770570000000    -0.428332   
O61      O      0.040960000000     0.497040000000     0.719360000000    -0.430516   
O62      O      0.452660000000     0.996910000000     0.717310000000    -0.433571   
O63      O      0.997100000000     0.040810000000     0.719200000000    -0.4318     
O64      O      0.497160000000     0.452510000000     0.717480000000    -0.432484   
O65      O      0.470400000000     0.201980000000     0.493150000000    -0.434182   
O66      O      0.470340000000     0.290260000000     0.994400000000    -0.435336   
O67      O      0.470770000000     0.246610000000     0.949820000000    -0.434564   
O68      O      0.470040000000     0.245630000000     0.537750000000    -0.434494   
O69      O      0.021400000000     0.247350000000     0.538050000000    -0.43006    
O70      O      0.022130000000     0.244950000000     0.950160000000    -0.428952   
O71      O      0.021760000000     0.290300000000     0.492620000000    -0.428585   
O72      O      0.021800000000     0.201990000000     0.995600000000    -0.42949    
O73      O      0.021710000000     0.290370000000     0.742850000000    -0.428803   
O74      O      0.022020000000     0.202060000000     0.743840000000    -0.428756   
O75      O      0.021370000000     0.245800000000     0.699700000000    -0.431633   
O76      O      0.022280000000     0.246630000000     0.787630000000    -0.428336   
O77      O      0.470900000000     0.246490000000     0.788180000000    -0.436631   
O78      O      0.469990000000     0.245580000000     0.700260000000    -0.433493   
O79      O      0.470570000000     0.201870000000     0.745070000000    -0.433789   
O80      O      0.470250000000     0.290190000000     0.744010000000    -0.433768   
O81      O      0.245910000000     0.021910000000     0.537780000000    -0.428701   
O82      O      0.246560000000     0.021720000000     0.949850000000    -0.430901   
O83      O      0.202080000000     0.021780000000     0.493200000000    -0.428898   
O84      O      0.290400000000     0.021930000000     0.993800000000    -0.429561   
O85      O      0.290490000000     0.470470000000     0.494680000000    -0.433803   
O86      O      0.202170000000     0.470320000000     0.994050000000    -0.435045   
O87      O      0.246670000000     0.470340000000     0.950090000000    -0.433264   
O88      O      0.245990000000     0.470530000000     0.538020000000    -0.436278   
O89      O      0.246790000000     0.470520000000     0.788010000000    -0.436309   
O90      O      0.245280000000     0.470350000000     0.700090000000    -0.433563   
O91      O      0.290190000000     0.470140000000     0.743560000000    -0.433777   
O92      O      0.201880000000     0.470650000000     0.745170000000    -0.433695   
O93      O      0.202190000000     0.022110000000     0.744310000000    -0.428824   
O94      O      0.290500000000     0.021600000000     0.742710000000    -0.428668   
O95      O      0.245590000000     0.021730000000     0.699860000000    -0.431318   
O96      O      0.247090000000     0.021900000000     0.787780000000    -0.428724   
O97      O      0.497440000000     0.539760000000     0.020330000000    -0.428583   
O98      O      0.995190000000     0.951490000000     0.018710000000    -0.431841   
O99      O      0.040490000000     0.494400000000     0.019340000000    -0.425571   
O100     O      0.452190000000     0.996210000000     0.019710000000    -0.430878   
O101     O      0.452020000000     0.496140000000     0.468450000000    -0.433684   
O102     O      0.040320000000     0.997760000000     0.468200000000    -0.430279   
O103     O      0.497180000000     0.952490000000     0.467520000000    -0.431599   
O104     O      0.995110000000     0.540770000000     0.469140000000    -0.435874   
O105     O      0.995270000000     0.951440000000     0.268680000000    -0.435124   
O106     O      0.495210000000     0.539740000000     0.270410000000    -0.432269   
O107     O      0.451410000000     0.995200000000     0.268520000000    -0.436114   
O108     O      0.039710000000     0.495330000000     0.270570000000    -0.42737    
O109     O      0.040960000000     0.997040000000     0.219360000000    -0.431886   
O110     O      0.452660000000     0.496910000000     0.217310000000    -0.432112   
O111     O      0.997100000000     0.540800000000     0.219200000000    -0.436499   
O112     O      0.497160000000     0.952510000000     0.217480000000    -0.431567   
O113     O      0.470400000000     0.701980000000     0.993150000000    -0.434888   
O114     O      0.470340000000     0.790260000000     0.494400000000    -0.434256   
O115     O      0.470770000000     0.746610000000     0.449820000000    -0.435168   
O116     O      0.470040000000     0.745640000000     0.037750000000    -0.431322   
O117     O      0.021400000000     0.747350000000     0.038050000000    -0.426884   
O118     O      0.022130000000     0.744950000000     0.450160000000    -0.429535   
O119     O      0.021760000000     0.790300000000     0.992620000000    -0.429306   
O120     O      0.021800000000     0.701990000000     0.495600000000    -0.428492   
O121     O      0.021710000000     0.790370000000     0.242850000000    -0.428792   
O122     O      0.022020000000     0.702070000000     0.243840000000    -0.428841   
O123     O      0.021370000000     0.745800000000     0.199700000000    -0.431614   
O124     O      0.022280000000     0.746630000000     0.287630000000    -0.428426   
O125     O      0.470890000000     0.746490000000     0.288180000000    -0.4365     
O126     O      0.469990000000     0.745580000000     0.200260000000    -0.433486   
O127     O      0.470570000000     0.701870000000     0.245070000000    -0.433812   
O128     O      0.470260000000     0.790190000000     0.244010000000    -0.433929   
O129     O      0.245910000000     0.521910000000     0.037780000000    -0.430398   
O130     O      0.246560000000     0.521720000000     0.449850000000    -0.436377   
O131     O      0.202080000000     0.521780000000     0.993200000000    -0.434624   
O132     O      0.290390000000     0.521930000000     0.493800000000    -0.433995   
O133     O      0.290490000000     0.970470000000     0.994690000000    -0.433254   
O134     O      0.202170000000     0.970320000000     0.494050000000    -0.432404   
O135     O      0.246670000000     0.970340000000     0.450090000000    -0.432286   
O136     O      0.245990000000     0.970530000000     0.038020000000    -0.431391   
O137     O      0.246780000000     0.970520000000     0.288010000000    -0.434827   
O138     O      0.245290000000     0.970350000000     0.200100000000    -0.432201   
O139     O      0.290190000000     0.970140000000     0.243560000000    -0.432216   
O140     O      0.201880000000     0.970650000000     0.245170000000    -0.432106   
O141     O      0.202190000000     0.522110000000     0.244310000000    -0.433808   
O142     O      0.290490000000     0.521600000000     0.242710000000    -0.433708   
O143     O      0.245590000000     0.521730000000     0.199860000000    -0.436178   
O144     O      0.247090000000     0.521900000000     0.287780000000    -0.433808   
O145     O      0.497440000000     0.539760000000     0.520330000000    -0.432166   
O146     O      0.995190000000     0.951490000000     0.518710000000    -0.435284   
O147     O      0.040490000000     0.494400000000     0.519340000000    -0.429059   
O148     O      0.452190000000     0.996210000000     0.519710000000    -0.434405   
O149     O      0.452020000000     0.496140000000     0.968450000000    -0.432598   
O150     O      0.040320000000     0.997760000000     0.968200000000    -0.429192   
O151     O      0.497180000000     0.952490000000     0.967520000000    -0.430556   
O152     O      0.995110000000     0.540770000000     0.969140000000    -0.434728   
O153     O      0.995270000000     0.951440000000     0.768680000000    -0.435138   
O154     O      0.495210000000     0.539740000000     0.770410000000    -0.43228    
O155     O      0.451410000000     0.995200000000     0.768520000000    -0.436131   
O156     O      0.039710000000     0.495330000000     0.770570000000    -0.427379   
O157     O      0.040960000000     0.997040000000     0.719360000000    -0.431929   
O158     O      0.452660000000     0.496910000000     0.717310000000    -0.432168   
O159     O      0.997100000000     0.540800000000     0.719200000000    -0.436553   
O160     O      0.497160000000     0.952510000000     0.717480000000    -0.431616   
O161     O      0.470400000000     0.701980000000     0.493150000000    -0.434254   
O162     O      0.470340000000     0.790260000000     0.994400000000    -0.43532    
O163     O      0.470770000000     0.746610000000     0.949820000000    -0.434591   
O164     O      0.470040000000     0.745640000000     0.537750000000    -0.434626   
O165     O      0.021400000000     0.747350000000     0.538050000000    -0.430158   
O166     O      0.022130000000     0.744950000000     0.950160000000    -0.42897    
O167     O      0.021760000000     0.790300000000     0.492620000000    -0.428637   
O168     O      0.021800000000     0.701990000000     0.995600000000    -0.429548   
O169     O      0.021710000000     0.790370000000     0.742850000000    -0.428825   
O170     O      0.022020000000     0.702070000000     0.743840000000    -0.428873   
O171     O      0.021370000000     0.745800000000     0.699700000000    -0.431667   
O172     O      0.022280000000     0.746630000000     0.787630000000    -0.428442   
O173     O      0.470890000000     0.746490000000     0.788180000000    -0.436515   
O174     O      0.469990000000     0.745580000000     0.700260000000    -0.433552   
O175     O      0.470570000000     0.701870000000     0.745070000000    -0.433857   
O176     O      0.470260000000     0.790190000000     0.744010000000    -0.433967   
O177     O      0.245910000000     0.521910000000     0.537780000000    -0.433741   
O178     O      0.246560000000     0.521720000000     0.949850000000    -0.435774   
O179     O      0.202080000000     0.521780000000     0.493200000000    -0.433951   
O180     O      0.290390000000     0.521930000000     0.993800000000    -0.434654   
O181     O      0.290490000000     0.970470000000     0.494680000000    -0.432217   
O182     O      0.202170000000     0.970320000000     0.994050000000    -0.433426   
O183     O      0.246670000000     0.970340000000     0.950090000000    -0.431755   
O184     O      0.245990000000     0.970530000000     0.538020000000    -0.434646   
O185     O      0.246780000000     0.970520000000     0.788010000000    -0.434815   
O186     O      0.245290000000     0.970350000000     0.700090000000    -0.432188   
O187     O      0.290190000000     0.970140000000     0.743560000000    -0.432234   
O188     O      0.201880000000     0.970650000000     0.745170000000    -0.432125   
O189     O      0.202190000000     0.522110000000     0.744310000000    -0.433848   
O190     O      0.290490000000     0.521600000000     0.742710000000    -0.433748   
O191     O      0.245590000000     0.521730000000     0.699860000000    -0.43627    
O192     O      0.247090000000     0.521900000000     0.787780000000    -0.43383    
O193     O      0.997440000000     0.039760000000     0.020330000000    -0.425262   
O194     O      0.495190000000     0.451490000000     0.018710000000    -0.431822   
O195     O      0.540490000000     0.994400000000     0.019340000000    -0.431158   
O196     O      0.952190000000     0.496210000000     0.019710000000    -0.429021   
O197     O      0.952020000000     0.996140000000     0.468450000000    -0.434233   
O198     O      0.540320000000     0.497760000000     0.468200000000    -0.433489   
O199     O      0.997180000000     0.452490000000     0.467520000000    -0.43385    
O200     O      0.495110000000     0.040760000000     0.469140000000    -0.430379   
O201     O      0.495270000000     0.451440000000     0.268680000000    -0.435069   
O202     O      0.995210000000     0.039740000000     0.270410000000    -0.428451   
O203     O      0.951410000000     0.495200000000     0.268520000000    -0.434244   
O204     O      0.539710000000     0.995330000000     0.270570000000    -0.433108   
O205     O      0.540960000000     0.497040000000     0.219360000000    -0.435124   
O206     O      0.952660000000     0.996910000000     0.217310000000    -0.432696   
O207     O      0.497100000000     0.040810000000     0.219200000000    -0.430291   
O208     O      0.997160000000     0.452510000000     0.217480000000    -0.433862   
O209     O      0.970400000000     0.201980000000     0.993150000000    -0.433227   
O210     O      0.970330000000     0.290260000000     0.494400000000    -0.432516   
O211     O      0.970770000000     0.246610000000     0.449820000000    -0.433602   
O212     O      0.970040000000     0.245630000000     0.037750000000    -0.429766   
O213     O      0.521400000000     0.247350000000     0.038050000000    -0.431749   
O214     O      0.522130000000     0.244950000000     0.450160000000    -0.434438   
O215     O      0.521760000000     0.290300000000     0.992620000000    -0.434312   
O216     O      0.521800000000     0.201990000000     0.495600000000    -0.433431   
O217     O      0.521710000000     0.290370000000     0.242850000000    -0.433756   
O218     O      0.522020000000     0.202060000000     0.243840000000    -0.433705   
O219     O      0.521370000000     0.245800000000     0.199700000000    -0.436391   
O220     O      0.522280000000     0.246630000000     0.287630000000    -0.433379   
O221     O      0.970890000000     0.246490000000     0.288180000000    -0.434841   
O222     O      0.969990000000     0.245580000000     0.200260000000    -0.43195    
O223     O      0.970570000000     0.201870000000     0.245070000000    -0.432165   
O224     O      0.970250000000     0.290190000000     0.244010000000    -0.432148   
O225     O      0.745910000000     0.021910000000     0.037780000000    -0.425391   
O226     O      0.746560000000     0.021720000000     0.449850000000    -0.431503   
O227     O      0.702080000000     0.021780000000     0.993200000000    -0.429619   
O228     O      0.790400000000     0.021930000000     0.493800000000    -0.428878   
O229     O      0.790480000000     0.470470000000     0.994690000000    -0.434937   
O230     O      0.702170000000     0.470320000000     0.494050000000    -0.434114   
O231     O      0.746670000000     0.470340000000     0.450090000000    -0.433851   
O232     O      0.745990000000     0.470530000000     0.038020000000    -0.433054   
O233     O      0.746790000000     0.470520000000     0.288010000000    -0.436346   
O234     O      0.745290000000     0.470350000000     0.200100000000    -0.433608   
O235     O      0.790190000000     0.470140000000     0.243560000000    -0.433772   
O236     O      0.701880000000     0.470650000000     0.245170000000    -0.433776   
O237     O      0.702190000000     0.022110000000     0.244310000000    -0.428832   
O238     O      0.790500000000     0.021600000000     0.242710000000    -0.428617   
O239     O      0.745590000000     0.021730000000     0.199860000000    -0.431237   
O240     O      0.747090000000     0.021900000000     0.287780000000    -0.428716   
O241     O      0.997440000000     0.039760000000     0.520330000000    -0.428815   
O242     O      0.495190000000     0.451490000000     0.518710000000    -0.435279   
O243     O      0.540490000000     0.994400000000     0.519340000000    -0.434668   
O244     O      0.952190000000     0.496210000000     0.519710000000    -0.432547   
O245     O      0.952020000000     0.996140000000     0.968450000000    -0.433152   
O246     O      0.540320000000     0.497760000000     0.968200000000    -0.432391   
O247     O      0.997180000000     0.452490000000     0.967520000000    -0.432802   
O248     O      0.495110000000     0.040760000000     0.969140000000    -0.429245   
O249     O      0.495270000000     0.451440000000     0.768680000000    -0.435083   
O250     O      0.995210000000     0.039740000000     0.770410000000    -0.428462   
O251     O      0.951410000000     0.495200000000     0.768520000000    -0.43426    
O252     O      0.539710000000     0.995330000000     0.770570000000    -0.433118   
O253     O      0.540960000000     0.497040000000     0.719360000000    -0.435171   
O254     O      0.952660000000     0.996910000000     0.717310000000    -0.432752   
O255     O      0.497100000000     0.040810000000     0.719200000000    -0.43034    
O256     O      0.997160000000     0.452510000000     0.717480000000    -0.433912   
O257     O      0.970400000000     0.201980000000     0.493150000000    -0.432593   
O258     O      0.970330000000     0.290260000000     0.994400000000    -0.433582   
O259     O      0.970770000000     0.246610000000     0.949820000000    -0.43303    
O260     O      0.970040000000     0.245630000000     0.537750000000    -0.433058   
O261     O      0.521400000000     0.247350000000     0.538050000000    -0.435048   
O262     O      0.522130000000     0.244950000000     0.950160000000    -0.433864   
O263     O      0.521760000000     0.290300000000     0.492620000000    -0.433651   
O264     O      0.521800000000     0.201990000000     0.995600000000    -0.434479   
O265     O      0.521710000000     0.290370000000     0.742850000000    -0.433793   
O266     O      0.522020000000     0.202060000000     0.743840000000    -0.43374    
O267     O      0.521370000000     0.245800000000     0.699700000000    -0.436451   
O268     O      0.522280000000     0.246630000000     0.787630000000    -0.433396   
O269     O      0.970890000000     0.246490000000     0.788180000000    -0.434856   
O270     O      0.969990000000     0.245580000000     0.700260000000    -0.432015   
O271     O      0.970570000000     0.201870000000     0.745070000000    -0.432209   
O272     O      0.970250000000     0.290190000000     0.744010000000    -0.432186   
O273     O      0.745910000000     0.021910000000     0.537780000000    -0.428711   
O274     O      0.746560000000     0.021720000000     0.949850000000    -0.430909   
O275     O      0.702080000000     0.021780000000     0.493200000000    -0.428935   
O276     O      0.790400000000     0.021930000000     0.993800000000    -0.429548   
O277     O      0.790480000000     0.470470000000     0.494680000000    -0.433902   
O278     O      0.702170000000     0.470320000000     0.994050000000    -0.435136   
O279     O      0.746670000000     0.470340000000     0.950090000000    -0.433314   
O280     O      0.745990000000     0.470530000000     0.538020000000    -0.436323   
O281     O      0.746790000000     0.470520000000     0.788010000000    -0.436335   
O282     O      0.745290000000     0.470350000000     0.700090000000    -0.433596   
O283     O      0.790190000000     0.470140000000     0.743560000000    -0.43379    
O284     O      0.701880000000     0.470650000000     0.745170000000    -0.433795   
O285     O      0.702190000000     0.022110000000     0.744310000000    -0.428868   
O286     O      0.790500000000     0.021600000000     0.742710000000    -0.428654   
O287     O      0.745590000000     0.021730000000     0.699860000000    -0.431324   
O288     O      0.747090000000     0.021900000000     0.787780000000    -0.428738   
O289     O      0.997440000000     0.539760000000     0.020330000000    -0.430046   
O290     O      0.495200000000     0.951490000000     0.018710000000    -0.430912   
O291     O      0.540480000000     0.494400000000     0.019340000000    -0.430318   
O292     O      0.952190000000     0.996210000000     0.019710000000    -0.430019   
O293     O      0.952020000000     0.496140000000     0.468450000000    -0.432808   
O294     O      0.540320000000     0.997760000000     0.468200000000    -0.435013   
O295     O      0.997180000000     0.952490000000     0.467520000000    -0.433049   
O296     O      0.495110000000     0.540770000000     0.469140000000    -0.434978   
O297     O      0.495270000000     0.951440000000     0.268680000000    -0.43417    
O298     O      0.995210000000     0.539740000000     0.270410000000    -0.433199   
O299     O      0.951410000000     0.995200000000     0.268520000000    -0.435205   
O300     O      0.539710000000     0.495330000000     0.270570000000    -0.432155   
O301     O      0.540960000000     0.997040000000     0.219360000000    -0.436537   
O302     O      0.952660000000     0.496910000000     0.217310000000    -0.4313     
O303     O      0.497100000000     0.540800000000     0.219200000000    -0.43503    
O304     O      0.997160000000     0.952510000000     0.217480000000    -0.432995   
O305     O      0.970400000000     0.701980000000     0.993150000000    -0.433305   
O306     O      0.970340000000     0.790260000000     0.494400000000    -0.432664   
O307     O      0.970770000000     0.746610000000     0.449820000000    -0.433618   
O308     O      0.970040000000     0.745640000000     0.037750000000    -0.429711   
O309     O      0.521400000000     0.747350000000     0.038050000000    -0.431669   
O310     O      0.522130000000     0.744950000000     0.450160000000    -0.43446    
O311     O      0.521760000000     0.790300000000     0.992620000000    -0.434295   
O312     O      0.521800000000     0.701990000000     0.495600000000    -0.433485   
O313     O      0.521710000000     0.790370000000     0.242850000000    -0.433876   
O314     O      0.522020000000     0.702070000000     0.243840000000    -0.433866   
O315     O      0.521370000000     0.745800000000     0.199700000000    -0.436456   
O316     O      0.522280000000     0.746630000000     0.287630000000    -0.433383   
O317     O      0.970900000000     0.746490000000     0.288180000000    -0.435025   
O318     O      0.969990000000     0.745580000000     0.200260000000    -0.431978   
O319     O      0.970570000000     0.701870000000     0.245070000000    -0.432193   
O320     O      0.970250000000     0.790190000000     0.244010000000    -0.432146   
O321     O      0.745910000000     0.521910000000     0.037780000000    -0.430392   
O322     O      0.746560000000     0.521720000000     0.449850000000    -0.436372   
O323     O      0.702080000000     0.521780000000     0.993200000000    -0.434644   
O324     O      0.790400000000     0.521930000000     0.493800000000    -0.433889   
O325     O      0.790490000000     0.970470000000     0.994690000000    -0.433245   
O326     O      0.702170000000     0.970320000000     0.494050000000    -0.432454   
O327     O      0.746670000000     0.970340000000     0.450090000000    -0.432307   
O328     O      0.745990000000     0.970530000000     0.038020000000    -0.431403   
O329     O      0.746790000000     0.970520000000     0.288010000000    -0.434841   
O330     O      0.745280000000     0.970350000000     0.200100000000    -0.432218   
O331     O      0.790190000000     0.970140000000     0.243560000000    -0.432208   
O332     O      0.701880000000     0.970650000000     0.245170000000    -0.432157   
O333     O      0.702180000000     0.522110000000     0.244310000000    -0.433765   
O334     O      0.790500000000     0.521600000000     0.242710000000    -0.43359    
O335     O      0.745590000000     0.521730000000     0.199860000000    -0.436151   
O336     O      0.747090000000     0.521900000000     0.287780000000    -0.433788   
O337     O      0.997440000000     0.539760000000     0.520330000000    -0.433626   
O338     O      0.495200000000     0.951490000000     0.518710000000    -0.434361   
O339     O      0.540480000000     0.494400000000     0.519340000000    -0.433833   
O340     O      0.952190000000     0.996210000000     0.519710000000    -0.433539   
O341     O      0.952020000000     0.496140000000     0.968450000000    -0.431727   
O342     O      0.540320000000     0.997760000000     0.968200000000    -0.433914   
O343     O      0.997180000000     0.952490000000     0.967520000000    -0.432005   
O344     O      0.495110000000     0.540770000000     0.969140000000    -0.433832   
O345     O      0.495270000000     0.951440000000     0.768680000000    -0.434184   
O346     O      0.995210000000     0.539740000000     0.770410000000    -0.433211   
O347     O      0.951410000000     0.995200000000     0.768520000000    -0.435223   
O348     O      0.539710000000     0.495330000000     0.770570000000    -0.432166   
O349     O      0.540960000000     0.997040000000     0.719360000000    -0.436585   
O350     O      0.952660000000     0.496910000000     0.717310000000    -0.431356   
O351     O      0.497100000000     0.540800000000     0.719200000000    -0.435082   
O352     O      0.997160000000     0.952510000000     0.717480000000    -0.433045   
O353     O      0.970400000000     0.701980000000     0.493150000000    -0.43267    
O354     O      0.970340000000     0.790260000000     0.994400000000    -0.433729   
O355     O      0.970770000000     0.746610000000     0.949820000000    -0.433045   
O356     O      0.970040000000     0.745640000000     0.537750000000    -0.433005   
O357     O      0.521400000000     0.747350000000     0.538050000000    -0.434971   
O358     O      0.522130000000     0.744950000000     0.950160000000    -0.433886   
O359     O      0.521760000000     0.790300000000     0.492620000000    -0.433635   
O360     O      0.521800000000     0.701990000000     0.995600000000    -0.434534   
O361     O      0.521710000000     0.790370000000     0.742850000000    -0.433912   
O362     O      0.522020000000     0.702070000000     0.743840000000    -0.433901   
O363     O      0.521370000000     0.745800000000     0.699700000000    -0.436516   
O364     O      0.522280000000     0.746630000000     0.787630000000    -0.4334     
O365     O      0.970900000000     0.746490000000     0.788180000000    -0.43504    
O366     O      0.969990000000     0.745580000000     0.700260000000    -0.432043   
O367     O      0.970570000000     0.701870000000     0.745070000000    -0.432236   
O368     O      0.970250000000     0.790190000000     0.744010000000    -0.432184   
O369     O      0.745910000000     0.521910000000     0.537780000000    -0.433739   
O370     O      0.746560000000     0.521720000000     0.949850000000    -0.435769   
O371     O      0.702080000000     0.521780000000     0.493200000000    -0.43397    
O372     O      0.790400000000     0.521930000000     0.993800000000    -0.434548   
O373     O      0.790490000000     0.970470000000     0.494680000000    -0.432209   
O374     O      0.702170000000     0.970320000000     0.994050000000    -0.433477   
O375     O      0.746670000000     0.970340000000     0.950090000000    -0.431775   
O376     O      0.745990000000     0.970530000000     0.538020000000    -0.434661   
O377     O      0.746790000000     0.970520000000     0.788010000000    -0.434829   
O378     O      0.745280000000     0.970350000000     0.700090000000    -0.432206   
O379     O      0.790190000000     0.970140000000     0.743560000000    -0.432226   
O380     O      0.701880000000     0.970650000000     0.745170000000    -0.432176   
O381     O      0.702180000000     0.522110000000     0.744310000000    -0.433805   
O382     O      0.790500000000     0.521600000000     0.742710000000    -0.43363    
O383     O      0.745590000000     0.521730000000     0.699860000000    -0.436243   
O384     O      0.747090000000     0.521900000000     0.787780000000    -0.43381    


