data_structure

_audit_creation_method RASPA-1.0
_audit_creation_date 2023-5-22
_audit_author_name 'Poobodin Mano'

_cell_length_a    46.1848
_cell_length_b    46.1478
_cell_length_c    38.9192
_cell_angle_alpha 90.0012
_cell_angle_beta  89.9971
_cell_angle_gamma 89.9989
_cell_volume      82949.5

_symmetry_cell_setting          triclinic
_symmetry_space_group_name_Hall 'P 1'
_symmetry_space_group_name_H-M  'P 1'
_symmetry_Int_Tables_number     1

_symmetry_equiv_pos_as_xyz 'x,y,z'

loop_
_atom_site_label
_atom_site_type_symbol
_atom_site_fract_x
_atom_site_fract_y
_atom_site_fract_z
_atom_site_charge
C1       C      0.488040000000     0.274220000000     0.963730000000     0.386076   
C2       C      0.409460000000     0.275270000000     0.055680000000     0.386342   
C3       C      0.487600000000     0.275600000000     0.056190000000     0.3865     
C4       C      0.410010000000     0.273820000000     0.963210000000     0.387336   
C5       C      0.177080000000     0.505740000000     0.962070000000     0.386407   
C6       C      0.178310000000     0.583830000000     0.054690000000     0.386229   
C7       C      0.177020000000     0.505620000000     0.054540000000     0.386378   
C8       C      0.178320000000     0.583960000000     0.962190000000     0.386125   
C9       C      0.492180000000     0.818420000000     0.962450000000     0.386355   
C10      C      0.413820000000     0.817850000000     0.054670000000     0.38641    
C11      C      0.491920000000     0.818470000000     0.054960000000     0.386799   
C12      C      0.414020000000     0.817790000000     0.962190000000     0.386508   
C13      C      0.724550000000     0.509990000000     0.962650000000     0.387644   
C14      C      0.724720000000     0.588710000000     0.054340000000     0.386482   
C15      C      0.723460000000     0.510510000000     0.055070000000     0.385922   
C16      C      0.725670000000     0.588060000000     0.961860000000     0.386035   
C17      C      0.224270000000     0.005940000000     0.462290000000     0.386384   
C18      C      0.224100000000     0.084280000000     0.554640000000     0.38633    
C19      C      0.224490000000     0.006060000000     0.554800000000     0.386503   
C20      C      0.223850000000     0.084200000000     0.462220000000     0.386505   
C21      C      0.992170000000     0.773850000000     0.461930000000     0.386403   
C22      C      0.914000000000     0.775880000000     0.554320000000     0.386535   
C23      C      0.992120000000     0.774910000000     0.554460000000     0.386367   
C24      C      0.914190000000     0.774740000000     0.461890000000     0.387772   
C25      C      0.678990000000     0.010150000000     0.462310000000     0.386745   
C26      C      0.678760000000     0.087830000000     0.555390000000     0.386751   
C27      C      0.679230000000     0.009720000000     0.554790000000     0.386562   
C28      C      0.678510000000     0.088410000000     0.462860000000     0.386431   
C29      C      0.987420000000     0.319540000000     0.463480000000     0.387322   
C30      C      0.909310000000     0.319620000000     0.555860000000     0.38616    
C31      C      0.987500000000     0.318320000000     0.555900000000     0.386181   
C32      C      0.909420000000     0.320710000000     0.463370000000     0.385952   
C33      C      0.153420000000     0.304700000000     0.295990000000     0.387069   
C34      C      0.243270000000     0.286550000000     0.223210000000     0.386307   
C35      C      0.209340000000     0.250990000000     0.295890000000     0.386022   
C36      C      0.187370000000     0.340290000000     0.223320000000     0.38594    
C37      C      0.708640000000     0.344750000000     0.222900000000     0.386399   
C38      C      0.688970000000     0.255140000000     0.295860000000     0.386394   
C39      C      0.653910000000     0.289690000000     0.223220000000     0.386259   
C40      C      0.743640000000     0.310280000000     0.295530000000     0.386208   
C41      C      0.708550000000     0.342760000000     0.796940000000     0.387267   
C42      C      0.689680000000     0.252900000000     0.724380000000     0.386698   
C43      C      0.654560000000     0.287070000000     0.797100000000     0.386067   
C44      C      0.743750000000     0.308500000000     0.724220000000     0.386162   
C45      C      0.692280000000     0.843870000000     0.295210000000     0.386215   
C46      C      0.713610000000     0.754610000000     0.222330000000     0.385977   
C47      C      0.747990000000     0.789960000000     0.294850000000     0.387283   
C48      C      0.657910000000     0.808580000000     0.222670000000     0.386488   
C49      C      0.747960000000     0.789410000000     0.721730000000     0.386788   
C50      C      0.658430000000     0.808240000000     0.794980000000     0.386459   
C51      C      0.692520000000     0.843710000000     0.722330000000     0.38641    
C52      C      0.713970000000     0.753960000000     0.794320000000     0.38675    
C53      C      0.158000000000     0.784700000000     0.294330000000     0.386657   
C54      C      0.247680000000     0.805160000000     0.221960000000     0.386614   
C55      C      0.212780000000     0.839730000000     0.294670000000     0.386386   
C56      C      0.192830000000     0.750190000000     0.221690000000     0.386576   
C57      C      0.212940000000     0.840210000000     0.722800000000     0.386406   
C58      C      0.192320000000     0.750530000000     0.795290000000     0.386309   
C59      C      0.157780000000     0.785660000000     0.722670000000     0.386204   
C60      C      0.247500000000     0.805140000000     0.795380000000     0.386773   
C61      C      0.210840000000     0.250520000000     0.721910000000     0.386103   
C62      C      0.188700000000     0.339840000000     0.794360000000     0.38606    
C63      C      0.154770000000     0.304230000000     0.721740000000     0.386284   
C64      C      0.244680000000     0.286270000000     0.794520000000     0.387183   
C65      C      0.041750000000     0.289720000000     0.620660000000    -0.0683672  
C66      C      0.056140000000     0.315140000000     0.630810000000     0.0237879  
C67      C      0.047320000000     0.341770000000     0.616720000000    -0.068415   
C68      C      0.024760000000     0.342900000000     0.592790000000     0.0278401  
C69      C      0.010670000000     0.317390000000     0.582230000000    -0.114296   
C70      C      0.019340000000     0.290810000000     0.596590000000     0.0282785  
C71      C      0.080790000000     0.313670000000     0.655250000000     0.023817   
C72      C      0.079390000000     0.295760000000     0.684420000000    -0.0684566  
C73      C      0.103160000000     0.293200000000     0.706430000000     0.028061   
C74      C      0.128950000000     0.308360000000     0.699660000000    -0.114213   
C75      C      0.130140000000     0.326710000000     0.670840000000     0.0282455  
C76      C      0.106300000000     0.329390000000     0.648940000000    -0.068277   
C77      C      0.098510000000     0.337790000000     0.356520000000    -0.0678548  
C78      C      0.080190000000     0.314020000000     0.363440000000     0.0242174  
C79      C      0.086080000000     0.287470000000     0.346940000000    -0.0679868  
C80      C      0.109340000000     0.284810000000     0.324230000000     0.030065   
C81      C      0.127870000000     0.308320000000     0.318250000000    -0.115565   
C82      C      0.122350000000     0.334810000000     0.334620000000     0.0299443  
C83      C      0.055580000000     0.316590000000     0.388300000000     0.0243871  
C84      C      0.056960000000     0.335980000000     0.416270000000    -0.0678252  
C85      C      0.034350000000     0.337610000000     0.440100000000     0.0302304  
C86      C      0.010290000000     0.319280000000     0.437150000000    -0.115914   
C87      C      0.008640000000     0.300020000000     0.409390000000     0.030629   
C88      C      0.030740000000     0.299040000000     0.384910000000    -0.0682107  
C89      C      0.819180000000     0.302980000000     0.332530000000    -0.0684895  
C90      C      0.817290000000     0.319970000000     0.362400000000     0.0238109  
C91      C      0.791500000000     0.335130000000     0.369090000000    -0.0682178  
C92      C      0.767780000000     0.332540000000     0.346960000000     0.0281212  
C93      C      0.769400000000     0.314850000000     0.317580000000    -0.114229   
C94      C      0.795550000000     0.300490000000     0.310330000000     0.028047   
C95      C      0.841590000000     0.320640000000     0.387370000000     0.0237752  
C96      C      0.855790000000     0.294840000000     0.396470000000    -0.0684604  
C97      C      0.877900000000     0.294990000000     0.420900000000     0.0282588  
C98      C      0.886480000000     0.320990000000     0.436750000000    -0.114263   
C99      C      0.872570000000     0.346910000000     0.427340000000     0.0278875  
C100     C      0.850250000000     0.346710000000     0.403000000000    -0.068245   
C101     C      0.849790000000     0.344810000000     0.616160000000    -0.0683409  
C102     C      0.841090000000     0.318600000000     0.631370000000     0.0238342  
C103     C      0.855300000000     0.292870000000     0.621940000000    -0.0684193  
C104     C      0.877530000000     0.293270000000     0.597620000000     0.0282844  
C105     C      0.886190000000     0.319450000000     0.582260000000    -0.114175   
C106     C      0.872200000000     0.345260000000     0.591970000000     0.0280056  
C107     C      0.816860000000     0.317790000000     0.656420000000     0.0237782  
C108     C      0.818870000000     0.300700000000     0.686200000000    -0.0686623  
C109     C      0.795420000000     0.298380000000     0.708680000000     0.0281106  
C110     C      0.769320000000     0.312970000000     0.701820000000    -0.114351   
C111     C      0.767560000000     0.330680000000     0.672490000000     0.0281003  
C112     C      0.791110000000     0.333130000000     0.650080000000    -0.0681447  
C113     C      0.705620000000     0.141290000000     0.622040000000    -0.0684992  
C114     C      0.679890000000     0.155200000000     0.631970000000     0.0238818  
C115     C      0.653620000000     0.146380000000     0.617030000000    -0.0684314  
C116     C      0.653140000000     0.124240000000     0.592490000000     0.0281749  
C117     C      0.678960000000     0.110620000000     0.582190000000    -0.114576   
C118     C      0.705180000000     0.119320000000     0.597390000000     0.0285182  
C119     C      0.680740000000     0.179450000000     0.657010000000     0.0239142  
C120     C      0.698240000000     0.177720000000     0.686480000000    -0.0686142  
C121     C      0.700540000000     0.201290000000     0.708860000000     0.0282193  
C122     C      0.685500000000     0.227170000000     0.702160000000    -0.114494   
C123     C      0.667430000000     0.228620000000     0.673120000000     0.0284306  
C124     C      0.665030000000     0.204990000000     0.650840000000    -0.0683567  
C125     C      0.664730000000     0.207180000000     0.369650000000    -0.0681723  
C126     C      0.680090000000     0.181480000000     0.363010000000     0.0237635  
C127     C      0.697160000000     0.179730000000     0.333200000000    -0.0685082  
C128     C      0.699420000000     0.203380000000     0.310950000000     0.0280877  
C129     C      0.684770000000     0.229400000000     0.318100000000    -0.114204   
C130     C      0.667100000000     0.230910000000     0.347490000000     0.0280643  
C131     C      0.679320000000     0.157040000000     0.387810000000     0.023848   
C132     C      0.705030000000     0.142740000000     0.397010000000    -0.068437   
C133     C      0.704690000000     0.120370000000     0.421170000000     0.0283923  
C134     C      0.678580000000     0.111650000000     0.436590000000    -0.114401   
C135     C      0.652770000000     0.125700000000     0.427090000000     0.0280406  
C136     C      0.653160000000     0.148250000000     0.403050000000    -0.0683427  
C137     C      0.654500000000     0.950080000000     0.402360000000    -0.0685047  
C138     C      0.680760000000     0.941860000000     0.386920000000     0.0239584  
C139     C      0.706230000000     0.956670000000     0.395940000000    -0.0686371  
C140     C      0.705550000000     0.978960000000     0.420160000000     0.0287059  
C141     C      0.679360000000     0.987100000000     0.435840000000    -0.114722   
C142     C      0.653780000000     0.972560000000     0.426470000000     0.0282378  
C143     C      0.681920000000     0.917420000000     0.362160000000     0.0237889  
C144     C      0.667260000000     0.891370000000     0.369030000000    -0.0682577  
C145     C      0.670100000000     0.867650000000     0.346920000000     0.0282496  
C146     C      0.687540000000     0.869540000000     0.317380000000    -0.114511   
C147     C      0.701470000000     0.895910000000     0.310010000000     0.0280634  
C148     C      0.698750000000     0.919540000000     0.332190000000    -0.0686711  
C149     C      0.699670000000     0.919180000000     0.684890000000    -0.0685975  
C150     C      0.682350000000     0.917230000000     0.655300000000     0.0238741  
C151     C      0.667120000000     0.891420000000     0.648920000000    -0.0682717  
C152     C      0.669890000000     0.867740000000     0.671100000000     0.0282715  
C153     C      0.687830000000     0.869430000000     0.700230000000    -0.11439    
C154     C      0.702330000000     0.895580000000     0.707160000000     0.0281512  
C155     C      0.681190000000     0.941570000000     0.630400000000     0.0238578  
C156     C      0.654840000000     0.950070000000     0.615400000000    -0.0683483  
C157     C      0.654080000000     0.972450000000     0.591160000000     0.0280735  
C158     C      0.679710000000     0.986610000000     0.581210000000    -0.114433   
C159     C      0.706010000000     0.978190000000     0.596420000000     0.0284614  
C160     C      0.706720000000     0.955990000000     0.620770000000    -0.0684461  
C161     C      0.051370000000     0.748040000000     0.401550000000    -0.0683518  
C162     C      0.060020000000     0.774150000000     0.386020000000     0.0238593  
C163     C      0.045810000000     0.799930000000     0.395180000000    -0.0686328  
C164     C      0.023690000000     0.799710000000     0.419600000000     0.0285099  
C165     C      0.015120000000     0.773670000000     0.435350000000    -0.114652   
C166     C      0.029050000000     0.747770000000     0.425870000000     0.02808    
C167     C      0.084330000000     0.774880000000     0.361090000000     0.0238728  
C168     C      0.110120000000     0.759750000000     0.367790000000    -0.0683155  
C169     C      0.133850000000     0.762390000000     0.345700000000     0.0283556  
C170     C      0.132240000000     0.780110000000     0.316360000000    -0.114529   
C171     C      0.106090000000     0.794450000000     0.309090000000     0.0282501  
C172     C      0.082440000000     0.791910000000     0.331250000000    -0.0686069  
C173     C      0.046050000000     0.801840000000     0.620540000000    -0.0684034  
C174     C      0.060080000000     0.776100000000     0.630280000000     0.0238328  
C175     C      0.051210000000     0.749820000000     0.615350000000    -0.0683605  
C176     C      0.028890000000     0.749330000000     0.591070000000     0.0281116  
C177     C      0.015120000000     0.775150000000     0.580990000000    -0.114341   
C178     C      0.023890000000     0.801390000000     0.596130000000     0.0283329  
C179     C      0.084390000000     0.776930000000     0.655220000000     0.0238102  
C180     C      0.109930000000     0.761230000000     0.648960000000    -0.068242   
C181     C      0.133550000000     0.763560000000     0.671250000000     0.0282228  
C182     C      0.132090000000     0.781520000000     0.700390000000    -0.114275   
C183     C      0.106220000000     0.796540000000     0.707170000000     0.0280849  
C184     C      0.082680000000     0.794330000000     0.684780000000    -0.0684879  
C185     C      0.795850000000     0.764270000000     0.648410000000    -0.0684042  
C186     C      0.821400000000     0.779980000000     0.654500000000     0.0239192  
C187     C      0.823070000000     0.797780000000     0.683730000000    -0.0686457  
C188     C      0.799480000000     0.800290000000     0.706010000000     0.028296   
C189     C      0.773620000000     0.785190000000     0.699440000000    -0.11457    
C190     C      0.772190000000     0.766900000000     0.670580000000     0.0284148  
C191     C      0.845810000000     0.778650000000     0.629740000000     0.0238777  
C192     C      0.854610000000     0.752080000000     0.615490000000    -0.0685708  
C193     C      0.877010000000     0.751090000000     0.591330000000     0.0280973  
C194     C      0.890930000000     0.776680000000     0.580740000000    -0.114754   
C195     C      0.882240000000     0.803200000000     0.595230000000     0.0285461  
C196     C      0.860000000000     0.804160000000     0.619510000000    -0.0685317  
C197     C      0.870930000000     0.795160000000     0.383270000000    -0.0682252  
C198     C      0.846050000000     0.777680000000     0.386710000000     0.0244358  
C199     C      0.844650000000     0.758300000000     0.414700000000    -0.0679257  
C200     C      0.867270000000     0.756650000000     0.438510000000     0.0303658  
C201     C      0.891350000000     0.774950000000     0.435530000000    -0.116107   
C202     C      0.893040000000     0.794170000000     0.407730000000     0.0306742  
C203     C      0.821400000000     0.780320000000     0.361930000000     0.0241597  
C204     C      0.815550000000     0.806910000000     0.345480000000    -0.0679308  
C205     C      0.792240000000     0.809660000000     0.322870000000     0.0300726  
C206     C      0.773610000000     0.786220000000     0.316960000000    -0.115665   
C207     C      0.779090000000     0.759700000000     0.333270000000     0.0299808  
C208     C      0.802990000000     0.756620000000     0.355050000000    -0.0677977  
C209     C      0.196220000000     0.137860000000     0.396280000000    -0.0685729  
C210     C      0.221600000000     0.152810000000     0.387220000000     0.0239308  
C211     C      0.247940000000     0.144630000000     0.402500000000    -0.068455   
C212     C      0.248820000000     0.122040000000     0.426480000000     0.0281255  
C213     C      0.223330000000     0.107370000000     0.435880000000    -0.114522   
C214     C      0.197060000000     0.115480000000     0.420380000000     0.0286145  
C215     C      0.220260000000     0.177310000000     0.362550000000     0.0237073  
C216     C      0.203340000000     0.175200000000     0.332650000000    -0.0685854  
C217     C      0.200430000000     0.198880000000     0.310570000000     0.0279411  
C218     C      0.214270000000     0.225290000000     0.317960000000    -0.114344   
C219     C      0.231820000000     0.227180000000     0.347420000000     0.0280721  
C220     C      0.234840000000     0.203410000000     0.369420000000    -0.0681217  
C221     C      0.196910000000     0.138020000000     0.620770000000    -0.0685106  
C222     C      0.222430000000     0.152690000000     0.629940000000     0.0238846  
C223     C      0.248690000000     0.144350000000     0.614590000000    -0.0684228  
C224     C      0.249370000000     0.121860000000     0.590480000000     0.0280607  
C225     C      0.223750000000     0.107430000000     0.581010000000    -0.11439    
C226     C      0.197550000000     0.115720000000     0.596550000000     0.0284973  
C227     C      0.221310000000     0.177060000000     0.654810000000     0.0237876  
C228     C      0.236170000000     0.203040000000     0.648180000000    -0.0681663  
C229     C      0.233340000000     0.226720000000     0.670360000000     0.0280582  
C230     C      0.215700000000     0.224860000000     0.699740000000    -0.11423    
C231     C      0.201600000000     0.198530000000     0.706900000000     0.0279777  
C232     C      0.204330000000     0.174940000000     0.684650000000    -0.0685575  
C233     C      0.237790000000     0.887950000000     0.649120000000    -0.0681879  
C234     C      0.222550000000     0.913740000000     0.655610000000     0.0237579  
C235     C      0.205400000000     0.915650000000     0.685360000000    -0.0685474  
C236     C      0.202930000000     0.892060000000     0.707650000000     0.0281039  
C237     C      0.217440000000     0.865930000000     0.700620000000    -0.114262   
C238     C      0.235210000000     0.864280000000     0.671330000000     0.0281649  
C239     C      0.223440000000     0.938070000000     0.630660000000     0.0238851  
C240     C      0.249640000000     0.946650000000     0.615350000000    -0.0683691  
C241     C      0.250120000000     0.969000000000     0.591060000000     0.0280255  
C242     C      0.224360000000     0.983050000000     0.581360000000    -0.114389   
C243     C      0.198220000000     0.974540000000     0.596880000000     0.0284899  
C244     C      0.197780000000     0.952380000000     0.621290000000    -0.06852    
C245     C      0.204820000000     0.915080000000     0.332280000000    -0.0686163  
C246     C      0.222070000000     0.913260000000     0.361940000000     0.0238266  
C247     C      0.237440000000     0.887540000000     0.368390000000    -0.0682111  
C248     C      0.234930000000     0.863850000000     0.346170000000     0.0281494  
C249     C      0.217110000000     0.865430000000     0.316930000000    -0.114288   
C250     C      0.202430000000     0.891480000000     0.309980000000     0.0281402  
C251     C      0.223000000000     0.937640000000     0.386820000000     0.0238101  
C252     C      0.249250000000     0.946350000000     0.401900000000    -0.0683305  
C253     C      0.249790000000     0.968800000000     0.426070000000     0.0279825  
C254     C      0.224040000000     0.982820000000     0.435860000000    -0.114291   
C255     C      0.197840000000     0.974190000000     0.420580000000     0.0283768  
C256     C      0.197340000000     0.951920000000     0.396300000000    -0.0684357  
C257     C      0.700980000000     0.420030000000     0.184960000000    -0.0684574  
C258     C      0.718810000000     0.418240000000     0.155770000000     0.0238022  
C259     C      0.734320000000     0.392540000000     0.149730000000    -0.0682912  
C260     C      0.731460000000     0.368880000000     0.171880000000     0.0283535  
C261     C      0.713130000000     0.370430000000     0.200680000000    -0.114374   
C262     C      0.698230000000     0.396430000000     0.207220000000     0.0281036  
C263     C      0.720320000000     0.442630000000     0.130960000000     0.0238446  
C264     C      0.694920000000     0.456980000000     0.120690000000    -0.0684552  
C265     C      0.696010000000     0.479140000000     0.096280000000     0.0283467  
C266     C      0.722560000000     0.487590000000     0.081700000000    -0.114428   
C267     C      0.748040000000     0.473530000000     0.092360000000     0.0278912  
C268     C      0.746910000000     0.451210000000     0.116640000000    -0.0684666  
C269     C      0.738180000000     0.707200000000     0.148200000000    -0.0681764  
C270     C      0.722930000000     0.681410000000     0.154630000000     0.0237785  
C271     C      0.705940000000     0.679370000000     0.184470000000    -0.0686108  
C272     C      0.703600000000     0.702860000000     0.206920000000     0.0280914  
C273     C      0.718090000000     0.729010000000     0.199970000000    -0.114334   
C274     C      0.735720000000     0.730790000000     0.170570000000     0.0280652  
C275     C      0.723730000000     0.657140000000     0.129620000000     0.0239042  
C276     C      0.698030000000     0.642880000000     0.120280000000    -0.0685188  
C277     C      0.698420000000     0.620610000000     0.096010000000     0.0284749  
C278     C      0.724560000000     0.611940000000     0.080620000000    -0.114387   
C279     C      0.750350000000     0.625990000000     0.090230000000     0.028106   
C280     C      0.749910000000     0.648450000000     0.114370000000    -0.0684437  
C281     C      0.751370000000     0.647310000000     0.901400000000    -0.0683311  
C282     C      0.725290000000     0.655780000000     0.885710000000     0.0238662  
C283     C      0.699590000000     0.641380000000     0.894730000000    -0.0686301  
C284     C      0.699860000000     0.619280000000     0.919180000000     0.0284894  
C285     C      0.725860000000     0.610900000000     0.935130000000    -0.114489   
C286     C      0.751690000000     0.624990000000     0.925750000000     0.0279787  
C287     C      0.724450000000     0.680130000000     0.860810000000     0.0238333  
C288     C      0.739310000000     0.706080000000     0.867630000000    -0.0682222  
C289     C      0.736480000000     0.729860000000     0.845630000000     0.0282919  
C290     C      0.718830000000     0.728160000000     0.816230000000    -0.114554   
C291     C      0.704800000000     0.701850000000     0.808820000000     0.028294   
C292     C      0.707530000000     0.678140000000     0.830890000000    -0.0686837  
C293     C      0.740650000000     0.439940000000     0.916250000000    -0.0678905  
C294     C      0.721270000000     0.441200000000     0.888270000000     0.02441    
C295     C      0.703920000000     0.466160000000     0.884550000000    -0.0682146  
C296     C      0.705030000000     0.488480000000     0.908760000000     0.0307547  
C297     C      0.724240000000     0.486930000000     0.936550000000    -0.11613    
C298     C      0.742420000000     0.462770000000     0.939800000000     0.0303353  
C299     C      0.718490000000     0.416360000000     0.863770000000     0.0242095  
C300     C      0.742080000000     0.397800000000     0.857000000000    -0.0678149  
C301     C      0.738900000000     0.373800000000     0.835360000000     0.0299704  
C302     C      0.712370000000     0.368360000000     0.819090000000    -0.115741   
C303     C      0.689020000000     0.387100000000     0.824960000000     0.0302137  
C304     C      0.691870000000     0.410510000000     0.847420000000    -0.068035   
C305     C      0.545830000000     0.791960000000     0.121270000000    -0.0685518  
C306     C      0.559780000000     0.817770000000     0.130880000000     0.0239676  
C307     C      0.550840000000     0.843980000000     0.115860000000    -0.068574   
C308     C      0.528530000000     0.844320000000     0.091550000000     0.0282266  
C309     C      0.514860000000     0.818420000000     0.081560000000    -0.114637   
C310     C      0.523690000000     0.792260000000     0.096850000000     0.0285373  
C311     C      0.584170000000     0.817060000000     0.155720000000     0.0237951  
C312     C      0.582630000000     0.799690000000     0.185330000000    -0.0685204  
C313     C      0.606290000000     0.797550000000     0.207560000000     0.028129   
C314     C      0.632100000000     0.812610000000     0.200570000000    -0.114425   
C315     C      0.633370000000     0.830540000000     0.171400000000     0.0283771  
C316     C      0.609640000000     0.832800000000     0.149270000000    -0.0682977  
C317     C      0.360040000000     0.790460000000     0.120620000000    -0.0684765  
C318     C      0.345640000000     0.816040000000     0.130170000000     0.0238594  
C319     C      0.354200000000     0.842390000000     0.115180000000    -0.0684232  
C320     C      0.376600000000     0.843100000000     0.090990000000     0.0281056  
C321     C      0.390740000000     0.817430000000     0.081100000000    -0.11446    
C322     C      0.382270000000     0.791130000000     0.096320000000     0.0284327  
C323     C      0.321250000000     0.814940000000     0.154990000000     0.0238847  
C324     C      0.295520000000     0.830250000000     0.148540000000    -0.0683505  
C325     C      0.271820000000     0.827580000000     0.170670000000     0.0283298  
C326     C      0.273400000000     0.809660000000     0.199840000000    -0.114489   
C327     C      0.299470000000     0.795040000000     0.206810000000     0.0282048  
C328     C      0.323090000000     0.797600000000     0.184590000000    -0.0686262  
C329     C      0.354340000000     0.842240000000     0.901730000000    -0.068442   
C330     C      0.345730000000     0.815870000000     0.886840000000     0.0238872  
C331     C      0.360170000000     0.790310000000     0.896370000000    -0.0684513  
C332     C      0.382470000000     0.791020000000     0.920590000000     0.0284539  
C333     C      0.390960000000     0.817340000000     0.935740000000    -0.114531   
C334     C      0.376800000000     0.842990000000     0.925830000000     0.0281891  
C335     C      0.321240000000     0.814720000000     0.862150000000     0.0238705  
C336     C      0.295550000000     0.830070000000     0.868690000000    -0.0682843  
C337     C      0.271790000000     0.827440000000     0.846650000000     0.0283118  
C338     C      0.273260000000     0.809500000000     0.817490000000    -0.114479   
C339     C      0.299260000000     0.794800000000     0.810450000000     0.0282257  
C340     C      0.322950000000     0.797330000000     0.832580000000    -0.0686283  
C341     C      0.546400000000     0.791820000000     0.896550000000    -0.0684325  
C342     C      0.560520000000     0.817580000000     0.887120000000     0.023862   
C343     C      0.551640000000     0.843800000000     0.902190000000    -0.0684054  
C344     C      0.529190000000     0.844190000000     0.926320000000     0.0280733  
C345     C      0.515320000000     0.818330000000     0.936080000000    -0.114343   
C346     C      0.524120000000     0.792170000000     0.920800000000     0.0284294  
C347     C      0.584910000000     0.816830000000     0.862280000000     0.0238639  
C348     C      0.610490000000     0.832390000000     0.868780000000    -0.068309   
C349     C      0.634180000000     0.830090000000     0.846570000000     0.028267   
C350     C      0.632740000000     0.812300000000     0.817280000000    -0.114391   
C351     C      0.606830000000     0.797410000000     0.810290000000     0.0281963  
C352     C      0.583230000000     0.799600000000     0.832580000000    -0.068602   
C353     C      0.206340000000     0.637350000000     0.120570000000    -0.0685512  
C354     C      0.180960000000     0.652050000000     0.130170000000     0.0238879  
C355     C      0.154500000000     0.643720000000     0.115290000000    -0.0683935  
C356     C      0.153500000000     0.621290000000     0.091130000000     0.028045   
C357     C      0.178990000000     0.606880000000     0.081170000000    -0.114466   
C358     C      0.205380000000     0.615090000000     0.096310000000     0.0285339  
C359     C      0.182390000000     0.676520000000     0.154890000000     0.0237919  
C360     C      0.199820000000     0.674630000000     0.184400000000    -0.0685308  
C361     C      0.202650000000     0.698300000000     0.206530000000     0.0281484  
C362     C      0.188220000000     0.724470000000     0.199550000000    -0.114346   
C363     C      0.170230000000     0.726140000000     0.170450000000     0.0281624  
C364     C      0.167300000000     0.702390000000     0.148420000000    -0.0681647  
C365     C      0.203130000000     0.451760000000     0.121140000000    -0.0684585  
C366     C      0.177340000000     0.437600000000     0.130360000000     0.0238689  
C367     C      0.151270000000     0.446270000000     0.114810000000    -0.0683957  
C368     C      0.151040000000     0.468610000000     0.090500000000     0.0280652  
C369     C      0.176920000000     0.482550000000     0.081020000000    -0.114373   
C370     C      0.202940000000     0.473910000000     0.096710000000     0.0284498  
C371     C      0.177960000000     0.413430000000     0.155520000000     0.0237293  
C372     C      0.162770000000     0.387600000000     0.149090000000    -0.0680989  
C373     C      0.165220000000     0.364040000000     0.171530000000     0.0280008  
C374     C      0.182780000000     0.365890000000     0.200970000000    -0.114152   
C375     C      0.197160000000     0.392100000000     0.207960000000     0.0279477  
C376     C      0.194830000000     0.415550000000     0.185450000000    -0.0685238  
C377     C      0.163860000000     0.387270000000     0.868330000000    -0.0681634  
C378     C      0.178610000000     0.413280000000     0.861510000000     0.0238254  
C379     C      0.195290000000     0.415450000000     0.831440000000    -0.0687317  
C380     C      0.197860000000     0.391870000000     0.809160000000     0.0280189  
C381     C      0.183920000000     0.365500000000     0.816530000000    -0.114432   
C382     C      0.166550000000     0.363590000000     0.846130000000     0.0281575  
C383     C      0.177780000000     0.437590000000     0.886460000000     0.0238873  
C384     C      0.151680000000     0.446030000000     0.902110000000    -0.06842    
C385     C      0.151300000000     0.468450000000     0.926320000000     0.0281435  
C386     C      0.177070000000     0.482690000000     0.935590000000    -0.114461   
C387     C      0.203110000000     0.474310000000     0.919740000000     0.0285556  
C388     C      0.203440000000     0.452090000000     0.895410000000    -0.0684398  
C389     C      0.166960000000     0.702700000000     0.868650000000    -0.0682563  
C390     C      0.182110000000     0.676850000000     0.862160000000     0.0238019  
C391     C      0.199470000000     0.674980000000     0.832590000000    -0.0684981  
C392     C      0.202180000000     0.698640000000     0.810420000000     0.0280496  
C393     C      0.187710000000     0.724800000000     0.817420000000    -0.114265   
C394     C      0.169790000000     0.726430000000     0.846570000000     0.0282389  
C395     C      0.180780000000     0.652380000000     0.886890000000     0.0238148  
C396     C      0.206200000000     0.637710000000     0.896420000000    -0.0684414  
C397     C      0.205320000000     0.615400000000     0.920630000000     0.0283263  
C398     C      0.178960000000     0.607100000000     0.935790000000    -0.114155   
C399     C      0.153440000000     0.621500000000     0.925920000000     0.0279559  
C400     C      0.154360000000     0.643980000000     0.901820000000    -0.068297   
C401     C      0.355040000000     0.302810000000     0.120860000000    -0.0684247  
C402     C      0.341220000000     0.277110000000     0.131120000000     0.0238497  
C403     C      0.350370000000     0.250680000000     0.116850000000    -0.0684817  
C404     C      0.372760000000     0.249990000000     0.092670000000     0.0279259  
C405     C      0.386330000000     0.275770000000     0.082060000000    -0.11449    
C406     C      0.377280000000     0.302170000000     0.096550000000     0.02837    
C407     C      0.316810000000     0.278090000000     0.155930000000     0.0238549  
C408     C      0.318270000000     0.295890000000     0.185180000000    -0.0685225  
C409     C      0.294660000000     0.298070000000     0.207500000000     0.0281352  
C410     C      0.269000000000     0.282630000000     0.200950000000    -0.114342   
C411     C      0.267790000000     0.264350000000     0.172070000000     0.0283062  
C412     C      0.291470000000     0.262050000000     0.149860000000    -0.0683095  
C413     C      0.606000000000     0.264260000000     0.150010000000    -0.068159   
C414     C      0.580270000000     0.279600000000     0.156370000000     0.0237913  
C415     C      0.578490000000     0.297140000000     0.185810000000    -0.0684567  
C416     C      0.602140000000     0.299820000000     0.207980000000     0.0280808  
C417     C      0.628180000000     0.285140000000     0.201110000000    -0.11423    
C418     C      0.629730000000     0.267050000000     0.172080000000     0.0281295  
C419     C      0.555810000000     0.278250000000     0.131660000000     0.0238555  
C420     C      0.541290000000     0.303700000000     0.121880000000    -0.0684178  
C421     C      0.519020000000     0.302770000000     0.097620000000     0.028392   
C422     C      0.510630000000     0.276330000000     0.082680000000    -0.114382   
C423     C      0.524870000000     0.250780000000     0.092850000000     0.028067   
C424     C      0.547290000000     0.251750000000     0.116980000000    -0.0683669  
C425     C      0.578800000000     0.293110000000     0.833750000000    -0.0687154  
C426     C      0.580960000000     0.276440000000     0.863840000000     0.0238571  
C427     C      0.607060000000     0.261950000000     0.870880000000    -0.0682542  
C428     C      0.630800000000     0.264860000000     0.848840000000     0.0282268  
C429     C      0.628890000000     0.282200000000     0.819210000000    -0.11443    
C430     C      0.602460000000     0.295910000000     0.811650000000     0.0280296  
C431     C      0.556530000000     0.275390000000     0.888610000000     0.0238202  
C432     C      0.541690000000     0.300920000000     0.897310000000    -0.0685405  
C433     C      0.519360000000     0.300410000000     0.921460000000     0.0283928  
C434     C      0.511210000000     0.274320000000     0.937400000000    -0.114378   
C435     C      0.525790000000     0.248660000000     0.928390000000     0.0279563  
C436     C      0.548330000000     0.249220000000     0.904350000000    -0.0682734  
C437     C      0.311770000000     0.304150000000     0.845600000000    -0.0679158  
C438     C      0.317750000000     0.277740000000     0.862390000000     0.0241725  
C439     C      0.299580000000     0.253830000000     0.855600000000    -0.0678044  
C440     C      0.275800000000     0.256540000000     0.833560000000     0.0299052  
C441     C      0.270190000000     0.282890000000     0.816900000000    -0.115588   
C442     C      0.288590000000     0.306530000000     0.822750000000     0.0300368  
C443     C      0.342280000000     0.275500000000     0.887410000000     0.0243445  
C444     C      0.367000000000     0.293220000000     0.884020000000    -0.0681025  
C445     C      0.388970000000     0.292640000000     0.908690000000     0.0305688  
C446     C      0.387330000000     0.273590000000     0.936640000000    -0.115821   
C447     C      0.363430000000     0.255040000000     0.939580000000     0.0301659  
C448     C      0.340940000000     0.256280000000     0.915560000000    -0.0677789  
H1       H      0.057820000000     0.361760000000     0.624290000000     0.047303   
H2       H      0.018610000000     0.363740000000     0.582280000000     0.0346146  
H3       H      0.008970000000     0.270730000000     0.589080000000     0.03491    
H4       H      0.048260000000     0.268830000000     0.630730000000     0.0474064  
H5       H      0.059900000000     0.283640000000     0.690180000000     0.0471775  
H6       H      0.101450000000     0.278930000000     0.728430000000     0.0346684  
H7       H      0.149640000000     0.338730000000     0.664850000000     0.0349755  
H8       H      0.108150000000     0.343150000000     0.626510000000     0.0474538  
H9       H      0.073240000000     0.268350000000     0.352050000000     0.0467894  
H10      H      0.113420000000     0.264010000000     0.312230000000     0.0316726  
H11      H      0.136290000000     0.353320000000     0.330170000000     0.031376   
H12      H      0.094510000000     0.358810000000     0.367850000000     0.0468696  
H13      H      0.075790000000     0.349470000000     0.420480000000     0.0469196  
H14      H      0.036170000000     0.352470000000     0.461540000000     0.0309851  
H15      H      0.990060000000     0.285900000000     0.406420000000     0.0306273  
H16      H      0.028190000000     0.284460000000     0.363370000000     0.0467512  
H17      H      0.789310000000     0.348210000000     0.392040000000     0.0475371  
H18      H      0.748000000000     0.343950000000     0.353300000000     0.0349594  
H19      H      0.797620000000     0.286800000000     0.287870000000     0.0347577  
H20      H      0.838910000000     0.291350000000     0.326450000000     0.0470779  
H21      H      0.849370000000     0.274340000000     0.385240000000     0.0473496  
H22      H      0.888140000000     0.274620000000     0.427480000000     0.034754   
H23      H      0.878650000000     0.367310000000     0.439050000000     0.0345934  
H24      H      0.839830000000     0.366970000000     0.396310000000     0.04734    
H25      H      0.848850000000     0.272280000000     0.632870000000     0.0474497  
H26      H      0.887810000000     0.272990000000     0.590770000000     0.0348289  
H27      H      0.878330000000     0.365800000000     0.580640000000     0.0347288  
H28      H      0.839380000000     0.365010000000     0.623120000000     0.0473547  
H29      H      0.838570000000     0.288950000000     0.692010000000     0.0472178  
H30      H      0.797610000000     0.284620000000     0.731080000000     0.0347714  
H31      H      0.747800000000     0.342250000000     0.666440000000     0.0349841  
H32      H      0.788830000000     0.346310000000     0.627200000000     0.0475016  
H33      H      0.633410000000     0.156550000000     0.624400000000     0.0473288  
H34      H      0.632570000000     0.118050000000     0.581340000000     0.0346403  
H35      H      0.725470000000     0.109290000000     0.590110000000     0.0348335  
H36      H      0.726250000000     0.147850000000     0.632760000000     0.0474073  
H37      H      0.710330000000     0.158180000000     0.692120000000     0.047206   
H38      H      0.714580000000     0.199370000000     0.731030000000     0.034635   
H39      H      0.655500000000     0.248200000000     0.667200000000     0.0349739  
H40      H      0.651560000000     0.207070000000     0.628190000000     0.0475237  
H41      H      0.708940000000     0.160080000000     0.327150000000     0.0471564  
H42      H      0.713130000000     0.201390000000     0.288500000000     0.0347787  
H43      H      0.655490000000     0.250600000000     0.353750000000     0.0349     
H44      H      0.651580000000     0.209260000000     0.392560000000     0.0474722  
H45      H      0.725590000000     0.149250000000     0.386060000000     0.0473901  
H46      H      0.724970000000     0.110040000000     0.427850000000     0.0347967  
H47      H      0.632280000000     0.119520000000     0.438470000000     0.0346151  
H48      H      0.632960000000     0.158720000000     0.396260000000     0.0473098  
H49      H      0.726850000000     0.950600000000     0.384810000000     0.0474129  
H50      H      0.725660000000     0.989690000000     0.426740000000     0.0347413  
H51      H      0.633240000000     0.978280000000     0.438050000000     0.0345591  
H52      H      0.634500000000     0.939190000000     0.395700000000     0.0473895  
H53      H      0.654320000000     0.889010000000     0.392070000000     0.0475809  
H54      H      0.659030000000     0.847680000000     0.353360000000     0.0350081  
H55      H      0.715000000000     0.898190000000     0.287430000000     0.0345951  
H56      H      0.710000000000     0.939470000000     0.325990000000     0.0471168  
H57      H      0.653790000000     0.889180000000     0.626180000000     0.0475149  
H58      H      0.658380000000     0.847950000000     0.665010000000     0.0349341  
H59      H      0.716250000000     0.897690000000     0.729410000000     0.0347132  
H60      H      0.711360000000     0.938920000000     0.690720000000     0.0472167  
H61      H      0.634770000000     0.939500000000     0.622520000000     0.0472985  
H62      H      0.633450000000     0.978400000000     0.579970000000     0.0346264  
H63      H      0.726160000000     0.988630000000     0.589400000000     0.0348415  
H64      H      0.727420000000     0.949700000000     0.631530000000     0.0474242  
H65      H      0.052230000000     0.820450000000     0.384020000000     0.0474089  
H66      H      0.013430000000     0.820060000000     0.426240000000     0.0347055  
H67      H      0.022970000000     0.727340000000     0.437510000000     0.0345813  
H68      H      0.061810000000     0.727800000000     0.394800000000     0.0473556  
H69      H      0.112300000000     0.746640000000     0.390730000000     0.0475284  
H70      H      0.153640000000     0.750980000000     0.352040000000     0.0349075  
H71      H      0.104020000000     0.808170000000     0.286650000000     0.0347185  
H72      H      0.062700000000     0.803520000000     0.325170000000     0.0471128  
H73      H      0.061460000000     0.729600000000     0.622570000000     0.0473293  
H74      H      0.022670000000     0.728740000000     0.579940000000     0.0347418  
H75      H      0.013760000000     0.821680000000     0.589010000000     0.0348511  
H76      H      0.052620000000     0.822480000000     0.631250000000     0.0474054  
H77      H      0.111990000000     0.747830000000     0.626240000000     0.0474834  
H78      H      0.153120000000     0.751660000000     0.665260000000     0.0349079  
H79      H      0.104300000000     0.810510000000     0.729410000000     0.0347202  
H80      H      0.063140000000     0.806390000000     0.690520000000     0.0471641  
H81      H      0.842610000000     0.809870000000     0.689320000000     0.0472331  
H82      H      0.801380000000     0.814510000000     0.728040000000     0.0346433  
H83      H      0.752630000000     0.754930000000     0.664770000000     0.0349043  
H84      H      0.793820000000     0.750580000000     0.625940000000     0.0474814  
H85      H      0.844240000000     0.732040000000     0.623120000000     0.047349   
H86      H      0.883170000000     0.730290000000     0.580720000000     0.0345585  
H87      H      0.892490000000     0.823330000000     0.587680000000     0.034855   
H88      H      0.853480000000     0.825000000000     0.629720000000     0.0474584  
H89      H      0.825800000000     0.744860000000     0.418950000000     0.0469684  
H90      H      0.865430000000     0.741820000000     0.459990000000     0.0308957  
H91      H      0.911640000000     0.808260000000     0.404740000000     0.0305851  
H92      H      0.873500000000     0.809720000000     0.361710000000     0.0467378  
H93      H      0.828470000000     0.825990000000     0.350560000000     0.0467594  
H94      H      0.788180000000     0.830480000000     0.310930000000     0.031675   
H95      H      0.765080000000     0.741240000000     0.328860000000     0.0313714  
H96      H      0.806960000000     0.735570000000     0.366350000000     0.0468241  
H97      H      0.267880000000     0.155610000000     0.395810000000     0.0473916  
H98      H      0.269420000000     0.116350000000     0.437940000000     0.0345332  
H99      H      0.177010000000     0.104650000000     0.426980000000     0.0347728  
H100     H      0.175540000000     0.143900000000     0.385280000000     0.0473919  
H101     H      0.192150000000     0.155240000000     0.326440000000     0.0470992  
H102     H      0.186840000000     0.196590000000     0.288060000000     0.034621   
H103     H      0.242820000000     0.247180000000     0.353860000000     0.0350577  
H104     H      0.247860000000     0.205760000000     0.392400000000     0.0475509  
H105     H      0.268730000000     0.155120000000     0.621350000000     0.0473586  
H106     H      0.269930000000     0.116020000000     0.579010000000     0.0345972  
H107     H      0.177410000000     0.105100000000     0.589890000000     0.034817   
H108     H      0.176280000000     0.144190000000     0.631800000000     0.0474717  
H109     H      0.249250000000     0.205400000000     0.625250000000     0.0475374  
H110     H      0.244530000000     0.246660000000     0.664090000000     0.035052   
H111     H      0.187940000000     0.196250000000     0.729360000000     0.0348072  
H112     H      0.192940000000     0.155060000000     0.690700000000     0.0471471  
H113     H      0.193700000000     0.935370000000     0.691280000000     0.0471706  
H114     H      0.189140000000     0.894150000000     0.730030000000     0.0347246  
H115     H      0.246730000000     0.844510000000     0.665160000000     0.0349165  
H116     H      0.250990000000     0.885740000000     0.626260000000     0.0474525  
H117     H      0.269800000000     0.936160000000     0.622270000000     0.0472957  
H118     H      0.270630000000     0.975020000000     0.579620000000     0.0345807  
H119     H      0.177960000000     0.984880000000     0.590060000000     0.0348076  
H120     H      0.177190000000     0.946020000000     0.632280000000     0.0474151  
H121     H      0.250720000000     0.885400000000     0.391190000000     0.0474584  
H122     H      0.246580000000     0.844150000000     0.352290000000     0.0348842  
H123     H      0.188590000000     0.893510000000     0.287640000000     0.0347344  
H124     H      0.193020000000     0.934740000000     0.326390000000     0.0472037  
H125     H      0.269400000000     0.935890000000     0.394890000000     0.0472999  
H126     H      0.270350000000     0.974910000000     0.437320000000     0.0346136  
H127     H      0.177600000000     0.984510000000     0.427490000000     0.0348152  
H128     H      0.176720000000     0.945470000000     0.385470000000     0.0473977  
H129     H      0.748030000000     0.390410000000     0.127290000000     0.0474295  
H130     H      0.743290000000     0.349210000000     0.166080000000     0.0349398  
H131     H      0.683980000000     0.398420000000     0.229200000000     0.0346644  
H132     H      0.689020000000     0.439680000000     0.190510000000     0.04715    
H133     H      0.674060000000     0.450640000000     0.130940000000     0.0474464  
H134     H      0.675960000000     0.489500000000     0.088710000000     0.0349034  
H135     H      0.768850000000     0.479510000000     0.081670000000     0.0345593  
H136     H      0.766870000000     0.440710000000     0.124290000000     0.0472971  
H137     H      0.694250000000     0.659630000000     0.190360000000     0.0471855  
H138     H      0.689910000000     0.700660000000     0.229370000000     0.0347896  
H139     H      0.747210000000     0.750590000000     0.164450000000     0.0349899  
H140     H      0.751280000000     0.709490000000     0.125270000000     0.0475012  
H141     H      0.677460000000     0.649340000000     0.131240000000     0.0474551  
H142     H      0.678150000000     0.610270000000     0.089230000000     0.0347948  
H143     H      0.770860000000     0.619850000000     0.078870000000     0.0346745  
H144     H      0.770090000000     0.658900000000     0.121260000000     0.0473781  
H145     H      0.679090000000     0.647650000000     0.883450000000     0.0474422  
H146     H      0.679570000000     0.608890000000     0.925730000000     0.0347348  
H147     H      0.772080000000     0.619070000000     0.937550000000     0.034564   
H148     H      0.771540000000     0.657900000000     0.894760000000     0.0473663  
H149     H      0.752330000000     0.708340000000     0.890630000000     0.0475237  
H150     H      0.747650000000     0.749770000000     0.852080000000     0.0349356  
H151     H      0.691150000000     0.699690000000     0.786330000000     0.0347102  
H152     H      0.696140000000     0.658300000000     0.824710000000     0.047162   
H153     H      0.689370000000     0.468620000000     0.862970000000     0.0467517  
H154     H      0.691040000000     0.507140000000     0.905550000000     0.0305799  
H155     H      0.757240000000     0.461040000000     0.961280000000     0.0309131  
H156     H      0.754000000000     0.421050000000     0.920690000000     0.0469728  
H157     H      0.763140000000     0.401730000000     0.868250000000     0.0468347  
H158     H      0.757290000000     0.359690000000     0.830990000000     0.0313711  
H159     H      0.668190000000     0.383080000000     0.813050000000     0.0316983  
H160     H      0.672870000000     0.423540000000     0.852450000000     0.0468232  
H161     H      0.561030000000     0.864240000000     0.122980000000     0.0473739  
H162     H      0.522250000000     0.864850000000     0.080310000000     0.0346022  
H163     H      0.513640000000     0.771900000000     0.089810000000     0.0347702  
H164     H      0.552480000000     0.771370000000     0.132060000000     0.047404   
H165     H      0.563150000000     0.787590000000     0.191210000000     0.0471567  
H166     H      0.604510000000     0.783600000000     0.229840000000     0.0346757  
H167     H      0.652890000000     0.842480000000     0.165260000000     0.034943   
H168     H      0.611580000000     0.846170000000     0.126510000000     0.0474828  
H169     H      0.343650000000     0.862490000000     0.122250000000     0.0473055  
H170     H      0.382590000000     0.863730000000     0.079790000000     0.0346246  
H171     H      0.392680000000     0.770940000000     0.089340000000     0.0348047  
H172     H      0.353700000000     0.769760000000     0.131380000000     0.0473817  
H173     H      0.293360000000     0.843590000000     0.125790000000     0.0474857  
H174     H      0.252100000000     0.839190000000     0.164540000000     0.0348869  
H175     H      0.301500000000     0.781130000000     0.229100000000     0.0347058  
H176     H      0.342770000000     0.785840000000     0.190480000000     0.0471928  
H177     H      0.353800000000     0.769590000000     0.885680000000     0.0473728  
H178     H      0.392890000000     0.770840000000     0.927580000000     0.0348053  
H179     H      0.382810000000     0.863640000000     0.936980000000     0.0346499  
H180     H      0.343770000000     0.862330000000     0.894660000000     0.0473397  
H181     H      0.293480000000     0.843450000000     0.891430000000     0.0474864  
H182     H      0.252110000000     0.839100000000     0.852840000000     0.0349054  
H183     H      0.301210000000     0.780870000000     0.788170000000     0.0346857  
H184     H      0.342590000000     0.785530000000     0.826630000000     0.0471932  
H185     H      0.561970000000     0.864030000000     0.895210000000     0.0473587  
H186     H      0.522930000000     0.864720000000     0.937580000000     0.0346721  
H187     H      0.513930000000     0.771840000000     0.927680000000     0.0348257  
H188     H      0.552990000000     0.771220000000     0.885720000000     0.0473907  
H189     H      0.612520000000     0.845660000000     0.891600000000     0.0475325  
H190     H      0.653770000000     0.841900000000     0.852710000000     0.034891   
H191     H      0.604910000000     0.783590000000     0.787910000000     0.0347424  
H192     H      0.563670000000     0.787650000000     0.826660000000     0.0471999  
H193     H      0.134550000000     0.654500000000     0.122410000000     0.0473327  
H194     H      0.132810000000     0.615500000000     0.080000000000     0.034618   
H195     H      0.225440000000     0.604460000000     0.089280000000     0.0347995  
H196     H      0.227110000000     0.643500000000     0.131240000000     0.0473903  
H197     H      0.211430000000     0.654850000000     0.190300000000     0.0471477  
H198     H      0.216600000000     0.696200000000     0.228760000000     0.0346767  
H199     H      0.158760000000     0.745940000000     0.164330000000     0.0349617  
H200     H      0.153900000000     0.704610000000     0.125720000000     0.047421   
H201     H      0.131030000000     0.435880000000     0.121590000000     0.0473567  
H202     H      0.130620000000     0.474730000000     0.078900000000     0.0345786  
H203     H      0.223270000000     0.484160000000     0.090050000000     0.0348019  
H204     H      0.223620000000     0.445320000000     0.132330000000     0.0474566  
H205     H      0.149760000000     0.385250000000     0.126100000000     0.0475176  
H206     H      0.153800000000     0.344210000000     0.165380000000     0.0350278  
H207     H      0.210780000000     0.394360000000     0.230460000000     0.0348236  
H208     H      0.206470000000     0.435320000000     0.191340000000     0.0471528  
H209     H      0.206600000000     0.435340000000     0.825260000000     0.0471785  
H210     H      0.211330000000     0.394170000000     0.786540000000     0.0346261  
H211     H      0.155470000000     0.343640000000     0.852550000000     0.0350394  
H212     H      0.151000000000     0.384890000000     0.891440000000     0.0475931  
H213     H      0.131540000000     0.435370000000     0.895530000000     0.0474173  
H214     H      0.130870000000     0.474360000000     0.938050000000     0.0345467  
H215     H      0.223360000000     0.484800000000     0.926230000000     0.0348271  
H216     H      0.223960000000     0.445840000000     0.884120000000     0.0473762  
H217     H      0.211110000000     0.655220000000     0.826670000000     0.0471434  
H218     H      0.216100000000     0.696560000000     0.788160000000     0.0347118  
H219     H      0.158300000000     0.746220000000     0.852730000000     0.034926   
H220     H      0.153610000000     0.704890000000     0.891380000000     0.0475024  
H221     H      0.226940000000     0.643910000000     0.885720000000     0.0473934  
H222     H      0.225400000000     0.604790000000     0.927600000000     0.0348266  
H223     H      0.132760000000     0.615650000000     0.937070000000     0.034717   
H224     H      0.134370000000     0.654720000000     0.894760000000     0.0473173  
H225     H      0.340280000000     0.230490000000     0.124480000000     0.0472866  
H226     H      0.379210000000     0.229280000000     0.082050000000     0.0345677  
H227     H      0.387260000000     0.322440000000     0.089010000000     0.0348634  
H228     H      0.348250000000     0.323560000000     0.131090000000     0.0474245  
H229     H      0.337650000000     0.308250000000     0.190750000000     0.0472018  
H230     H      0.296380000000     0.312300000000     0.229540000000     0.0346645  
H231     H      0.248380000000     0.252120000000     0.166260000000     0.0349334  
H232     H      0.289600000000     0.248340000000     0.127380000000     0.0474331  
H233     H      0.558810000000     0.308940000000     0.191640000000     0.0471467  
H234     H      0.600130000000     0.313870000000     0.230150000000     0.0347121  
H235     H      0.649430000000     0.255400000000     0.166020000000     0.0349478  
H236     H      0.608130000000     0.250770000000     0.127370000000     0.0474651  
H237     H      0.547570000000     0.324500000000     0.132400000000     0.0474211  
H238     H      0.508530000000     0.322870000000     0.090430000000     0.0348364  
H239     H      0.518940000000     0.230040000000     0.081880000000     0.0347058  
H240     H      0.557920000000     0.231740000000     0.124240000000     0.0473141  
H241     H      0.609440000000     0.249120000000     0.894010000000     0.0476128  
H242     H      0.650810000000     0.253950000000     0.855410000000     0.0350453  
H243     H      0.600140000000     0.309340000000     0.788980000000     0.0346217  
H244     H      0.558840000000     0.304220000000     0.827410000000     0.047096   
H245     H      0.547740000000     0.321490000000     0.885980000000     0.047331   
H246     H      0.508600000000     0.320590000000     0.927750000000     0.0347366  
H247     H      0.520060000000     0.228200000000     0.940200000000     0.0346093  
H248     H      0.559260000000     0.229160000000     0.897960000000     0.0473722  
H249     H      0.303640000000     0.232910000000     0.867170000000     0.0468287  
H250     H      0.261960000000     0.237930000000     0.829220000000     0.0313671  
H251     H      0.284440000000     0.327230000000     0.810550000000     0.0317193  
H252     H      0.324490000000     0.323380000000     0.850600000000     0.0467527  
H253     H      0.369550000000     0.307670000000     0.862350000000     0.0467052  
H254     H      0.407430000000     0.306910000000     0.905720000000     0.0305925  
H255     H      0.361640000000     0.240330000000     0.961180000000     0.0308897  
H256     H      0.322210000000     0.242660000000     0.919770000000     0.046928   
Ni1      Ni     0.448650000000     0.300520000000     0.009100000000     1.00092    
Ni2      Ni     0.448830000000     0.248800000000     0.010290000000     0.987128   
Ni3      Ni     0.203430000000     0.544380000000     0.008380000000     1.00212    
Ni4      Ni     0.151770000000     0.545200000000     0.008350000000     0.98588    
Ni5      Ni     0.452780000000     0.844060000000     0.008530000000     0.987438   
Ni6      Ni     0.453200000000     0.792350000000     0.008580000000     1.00111    
Ni7      Ni     0.750520000000     0.548880000000     0.008920000000     0.986891   
Ni8      Ni     0.698840000000     0.549710000000     0.008030000000     1.00209    
Ni9      Ni     0.250090000000     0.045240000000     0.508390000000     0.986142   
Ni10     Ni     0.198430000000     0.044970000000     0.508570000000     1.00229    
Ni11     Ni     0.953440000000     0.800640000000     0.507680000000     1.00184    
Ni12     Ni     0.952770000000     0.748910000000     0.508620000000     0.988233   
Ni13     Ni     0.704630000000     0.049200000000     0.508710000000     1.00201    
Ni14     Ni     0.652970000000     0.048880000000     0.508900000000     0.987136   
Ni15     Ni     0.948870000000     0.345480000000     0.510160000000     0.987087   
Ni16     Ni     0.948000000000     0.293760000000     0.509170000000     1.00125    
Ni17     Ni     0.184350000000     0.281070000000     0.240470000000     0.995027   
Ni18     Ni     0.212270000000     0.310230000000     0.278790000000     0.993494   
Ni19     Ni     0.713020000000     0.285710000000     0.240200000000     0.995246   
Ni20     Ni     0.684520000000     0.314210000000     0.278570000000     0.992835   
Ni21     Ni     0.684630000000     0.311890000000     0.741570000000     0.996256   
Ni22     Ni     0.713690000000     0.283800000000     0.779830000000     0.9934     
Ni23     Ni     0.689050000000     0.784680000000     0.278000000000     0.994103   
Ni24     Ni     0.716910000000     0.813800000000     0.239580000000     0.995117   
Ni25     Ni     0.689050000000     0.784500000000     0.739170000000     0.995769   
Ni26     Ni     0.717370000000     0.813180000000     0.777540000000     0.993689   
Ni27     Ni     0.217080000000     0.780670000000     0.277330000000     0.993822   
Ni28     Ni     0.188610000000     0.809240000000     0.239000000000     0.99495    
Ni29     Ni     0.216800000000     0.781060000000     0.739840000000     0.994013   
Ni30     Ni     0.188470000000     0.809690000000     0.778260000000     0.994124   
Ni31     Ni     0.185830000000     0.280590000000     0.777310000000     0.992935   
Ni32     Ni     0.213700000000     0.309770000000     0.738950000000     0.99542    
O1       O      0.478290000000     0.298430000000     0.974910000000    -0.440627   
O2       O      0.418970000000     0.299220000000     0.043440000000    -0.439769   
O3       O      0.477540000000     0.299480000000     0.044370000000    -0.43963    
O4       O      0.419920000000     0.298170000000     0.973750000000    -0.438816   
O5       O      0.419250000000     0.249850000000     0.975660000000    -0.435764   
O6       O      0.478280000000     0.251210000000     0.044960000000    -0.436654   
O7       O      0.419490000000     0.250960000000     0.045090000000    -0.436891   
O8       O      0.478230000000     0.250140000000     0.975360000000    -0.435536   
O9       O      0.201300000000     0.515190000000     0.973580000000    -0.44033    
O10      O      0.202220000000     0.573630000000     0.043170000000    -0.440422   
O11      O      0.201250000000     0.515070000000     0.043080000000    -0.440125   
O12      O      0.202230000000     0.573750000000     0.973680000000    -0.439925   
O13      O      0.153990000000     0.574650000000     0.973600000000    -0.436004   
O14      O      0.153010000000     0.515690000000     0.043100000000    -0.436147   
O15      O      0.153980000000     0.574570000000     0.043210000000    -0.435992   
O16      O      0.153050000000     0.515760000000     0.973510000000    -0.435995   
O17      O      0.482300000000     0.842540000000     0.973850000000    -0.436399   
O18      O      0.423310000000     0.842110000000     0.043230000000    -0.436614   
O19      O      0.482110000000     0.842570000000     0.043440000000    -0.436668   
O20      O      0.423480000000     0.842060000000     0.973640000000    -0.436564   
O21      O      0.424000000000     0.793780000000     0.973730000000    -0.439976   
O22      O      0.482360000000     0.794290000000     0.043440000000    -0.440218   
O23      O      0.423840000000     0.793820000000     0.043230000000    -0.44011    
O24      O      0.482540000000     0.794250000000     0.973920000000    -0.439928   
O25      O      0.748740000000     0.518920000000     0.974800000000    -0.435982   
O26      O      0.748860000000     0.578790000000     0.043120000000    -0.436654   
O27      O      0.747920000000     0.519960000000     0.044210000000    -0.43642    
O28      O      0.749600000000     0.577920000000     0.973510000000    -0.435278   
O29      O      0.701350000000     0.578910000000     0.973360000000    -0.441044   
O30      O      0.699680000000     0.520390000000     0.042810000000    -0.440034   
O31      O      0.700610000000     0.578990000000     0.042830000000    -0.439854   
O32      O      0.700470000000     0.520510000000     0.973150000000    -0.439195   
O33      O      0.248420000000     0.015760000000     0.473630000000    -0.436202   
O34      O      0.248300000000     0.074710000000     0.543150000000    -0.436179   
O35      O      0.248590000000     0.015820000000     0.543240000000    -0.436152   
O36      O      0.248110000000     0.074660000000     0.473570000000    -0.436076   
O37      O      0.199870000000     0.074220000000     0.473780000000    -0.440454   
O38      O      0.200350000000     0.015740000000     0.543360000000    -0.440445   
O39      O      0.200050000000     0.074310000000     0.543260000000    -0.440238   
O40      O      0.200180000000     0.015640000000     0.473860000000    -0.440197   
O41      O      0.982890000000     0.798180000000     0.473320000000    -0.441121   
O42      O      0.923870000000     0.799710000000     0.542150000000    -0.440047   
O43      O      0.982420000000     0.799000000000     0.542800000000    -0.439786   
O44      O      0.924530000000     0.798880000000     0.472480000000    -0.439221   
O45      O      0.923080000000     0.750570000000     0.474170000000    -0.436134   
O46      O      0.982380000000     0.750710000000     0.543140000000    -0.436781   
O47      O      0.923610000000     0.751440000000     0.543580000000    -0.437113   
O48      O      0.982020000000     0.749900000000     0.473520000000    -0.436071   
O49      O      0.703030000000     0.020090000000     0.473760000000    -0.440412   
O50      O      0.702870000000     0.078270000000     0.543700000000    -0.440404   
O51      O      0.703220000000     0.019720000000     0.543250000000    -0.440131   
O52      O      0.702670000000     0.078670000000     0.474190000000    -0.440187   
O53      O      0.654430000000     0.078520000000     0.474320000000    -0.436353   
O54      O      0.654980000000     0.019280000000     0.543480000000    -0.436529   
O55      O      0.654620000000     0.078110000000     0.543930000000    -0.436731   
O56      O      0.654790000000     0.019620000000     0.473900000000    -0.436516   
O57      O      0.978600000000     0.343730000000     0.475780000000    -0.436046   
O58      O      0.919180000000     0.343790000000     0.544610000000    -0.436446   
O59      O      0.977990000000     0.342800000000     0.545190000000    -0.436646   
O60      O      0.919640000000     0.344630000000     0.474990000000    -0.435353   
O61      O      0.918600000000     0.296350000000     0.474750000000    -0.440886   
O62      O      0.977530000000     0.294540000000     0.543700000000    -0.439782   
O63      O      0.918960000000     0.295500000000     0.544230000000    -0.439567   
O64      O      0.976970000000     0.295420000000     0.474020000000    -0.438849   
O65      O      0.151580000000     0.288560000000     0.269300000000    -0.438299   
O66      O      0.219030000000     0.275300000000     0.214310000000    -0.438255   
O67      O      0.193920000000     0.248460000000     0.268690000000    -0.439141   
O68      O      0.176630000000     0.315710000000     0.214750000000    -0.437382   
O69      O      0.203230000000     0.342730000000     0.250180000000    -0.439066   
O70      O      0.219530000000     0.275700000000     0.304890000000    -0.437192   
O71      O      0.245220000000     0.302080000000     0.250420000000    -0.438028   
O72      O      0.177420000000     0.316620000000     0.304510000000    -0.436857   
O73      O      0.719630000000     0.320340000000     0.214170000000    -0.438376   
O74      O      0.704600000000     0.252990000000     0.268770000000    -0.43907    
O75      O      0.678340000000     0.278800000000     0.214390000000    -0.437974   
O76      O      0.745790000000     0.294500000000     0.268550000000    -0.438614   
O77      O      0.719210000000     0.321160000000     0.304370000000    -0.437556   
O78      O      0.651750000000     0.305440000000     0.250220000000    -0.438406   
O79      O      0.677960000000     0.279540000000     0.304630000000    -0.437542   
O80      O      0.692950000000     0.346950000000     0.249950000000    -0.438052   
O81      O      0.692370000000     0.344650000000     0.770310000000    -0.438901   
O82      O      0.678590000000     0.277220000000     0.715480000000    -0.438883   
O83      O      0.652060000000     0.302510000000     0.769900000000    -0.439334   
O84      O      0.719230000000     0.319390000000     0.715720000000    -0.437461   
O85      O      0.746140000000     0.292630000000     0.751080000000    -0.439177   
O86      O      0.679220000000     0.276770000000     0.806060000000    -0.437306   
O87      O      0.705260000000     0.250860000000     0.751530000000    -0.438198   
O88      O      0.720350000000     0.318680000000     0.805470000000    -0.436702   
O89      O      0.682050000000     0.819190000000     0.304220000000    -0.437573   
O90      O      0.697830000000     0.752200000000     0.249260000000    -0.439253   
O91      O      0.723990000000     0.778110000000     0.303480000000    -0.437062   
O92      O      0.656020000000     0.793020000000     0.249870000000    -0.438273   
O93      O      0.682150000000     0.819730000000     0.213630000000    -0.438428   
O94      O      0.749780000000     0.806140000000     0.268190000000    -0.438316   
O95      O      0.724410000000     0.779170000000     0.213750000000    -0.437341   
O96      O      0.707590000000     0.846400000000     0.267910000000    -0.43926    
O97      O      0.723640000000     0.778240000000     0.713030000000    -0.438774   
O98      O      0.656340000000     0.792620000000     0.767870000000    -0.438994   
O99      O      0.681800000000     0.819200000000     0.713480000000    -0.438127   
O100     O      0.698150000000     0.751740000000     0.767390000000    -0.439126   
O101     O      0.724640000000     0.778470000000     0.803220000000    -0.437951   
O102     O      0.708290000000     0.845950000000     0.749300000000    -0.438594   
O103     O      0.682750000000     0.819430000000     0.803710000000    -0.437805   
O104     O      0.750090000000     0.805060000000     0.748820000000    -0.438469   
O105     O      0.182410000000     0.773790000000     0.303160000000    -0.438089   
O106     O      0.249840000000     0.789380000000     0.248940000000    -0.438662   
O107     O      0.223750000000     0.815300000000     0.303390000000    -0.437854   
O108     O      0.208530000000     0.747960000000     0.248720000000    -0.438383   
O109     O      0.181920000000     0.774630000000     0.212950000000    -0.438369   
O110     O      0.197120000000     0.841940000000     0.267610000000    -0.438728   
O111     O      0.223280000000     0.816110000000     0.213170000000    -0.438292   
O112     O      0.155850000000     0.800500000000     0.267370000000    -0.438879   
O113     O      0.223750000000     0.815740000000     0.713970000000    -0.437865   
O114     O      0.208010000000     0.748310000000     0.768260000000    -0.438558   
O115     O      0.182120000000     0.774540000000     0.713900000000    -0.437925   
O116     O      0.249590000000     0.789450000000     0.768330000000    -0.438677   
O117     O      0.223160000000     0.816210000000     0.804190000000    -0.438178   
O118     O      0.155690000000     0.801330000000     0.749750000000    -0.438486   
O119     O      0.181510000000     0.775010000000     0.804120000000    -0.437803   
O120     O      0.197270000000     0.842440000000     0.749850000000    -0.438596   
O121     O      0.194950000000     0.248080000000     0.748740000000    -0.439049   
O122     O      0.178530000000     0.315130000000     0.803380000000    -0.437154   
O123     O      0.152860000000     0.288680000000     0.748940000000    -0.437864   
O124     O      0.220710000000     0.274290000000     0.803040000000    -0.436584   
O125     O      0.246480000000     0.302360000000     0.767790000000    -0.438414   
O126     O      0.179000000000     0.315470000000     0.712800000000    -0.438303   
O127     O      0.204090000000     0.342380000000     0.767130000000    -0.439299   
O128     O      0.221500000000     0.275120000000     0.713280000000    -0.437488   


