data_structure

_audit_creation_method RASPA-1.0
_audit_creation_date 2023-5-22
_audit_author_name 'Poobodin Mano'

_cell_length_a    51.9628
_cell_length_b    52.4112
_cell_length_c    52.3986
_cell_angle_alpha 90.0031
_cell_angle_beta  89.9989
_cell_angle_gamma 90.007
_cell_volume      142704

_symmetry_cell_setting          triclinic
_symmetry_space_group_name_Hall 'P 1'
_symmetry_space_group_name_H-M  'P 1'
_symmetry_Int_Tables_number     1

_symmetry_equiv_pos_as_xyz 'x,y,z'

loop_
_atom_site_label
_atom_site_type_symbol
_atom_site_fract_x
_atom_site_fract_y
_atom_site_fract_z
_atom_site_charge
C1       C      0.864080000000     0.511610000000     0.811730000000     0.385964   
C2       C      0.816000000000     0.442890000000     0.861410000000     0.385991   
C3       C      0.865020000000     0.443160000000     0.812220000000     0.385939   
C4       C      0.815170000000     0.511290000000     0.860800000000     0.387384   
C5       C      0.665390000000     0.675760000000     0.046030000000     0.386163   
C6       C      0.714600000000     0.627280000000     0.977360000000     0.387142   
C7       C      0.665880000000     0.676550000000     0.977570000000     0.38597    
C8       C      0.714160000000     0.626340000000     0.045770000000     0.385749   
C9       C      0.550230000000     0.827960000000     0.813150000000     0.38697    
C10      C      0.481510000000     0.778320000000     0.861470000000     0.387596   
C11      C      0.481210000000     0.826920000000     0.812440000000     0.385653   
C12      C      0.550530000000     0.779380000000     0.862230000000     0.385708   
C13      C      0.665020000000     0.943450000000     0.709930000000     0.386471   
C14      C      0.713810000000     0.011960000000     0.660700000000     0.38646    
C15      C      0.665000000000     0.011890000000     0.710050000000     0.386492   
C16      C      0.713790000000     0.943500000000     0.660590000000     0.38645    
C17      C      0.979170000000     0.626700000000     0.708370000000     0.386081   
C18      C      0.048560000000     0.675400000000     0.659780000000     0.386111   
C19      C      0.048230000000     0.626590000000     0.708690000000     0.386689   
C20      C      0.979500000000     0.675500000000     0.659540000000     0.386685   
C21      C      0.864760000000     0.779120000000     0.476000000000     0.385958   
C22      C      0.816100000000     0.828410000000     0.544610000000     0.386152   
C23      C      0.864780000000     0.779080000000     0.544490000000     0.387332   
C24      C      0.816030000000     0.828500000000     0.476130000000     0.386822   
C25      C      0.480300000000     0.126810000000     0.811740000000     0.387995   
C26      C      0.548290000000     0.175700000000     0.861790000000     0.386626   
C27      C      0.549250000000     0.126750000000     0.813010000000     0.385968   
C28      C      0.479210000000     0.175630000000     0.860460000000     0.38591    
C29      C      0.664130000000     0.278320000000     0.976940000000     0.386582   
C30      C      0.714250000000     0.326600000000     0.045040000000     0.387536   
C31      C      0.665080000000     0.277900000000     0.045470000000     0.385712   
C32      C      0.713390000000     0.327260000000     0.976660000000     0.38563    
C33      C      0.865510000000     0.510120000000     0.209720000000     0.386524   
C34      C      0.816010000000     0.441730000000     0.161230000000     0.387928   
C35      C      0.865010000000     0.441580000000     0.210180000000     0.385942   
C36      C      0.816520000000     0.510100000000     0.160630000000     0.386082   
C37      C      0.980040000000     0.626210000000     0.312510000000     0.38671    
C38      C      0.048870000000     0.675350000000     0.361320000000     0.386682   
C39      C      0.049080000000     0.626370000000     0.312640000000     0.386185   
C40      C      0.979820000000     0.675250000000     0.361230000000     0.385948   
C41      C      0.164040000000     0.778600000000     0.476310000000     0.386959   
C42      C      0.213220000000     0.827570000000     0.544720000000     0.386888   
C43      C      0.164130000000     0.778550000000     0.544820000000     0.38612    
C44      C      0.213060000000     0.827610000000     0.476220000000     0.386054   
C45      C      0.365380000000     0.010070000000     0.710000000000     0.387478   
C46      C      0.316670000000     0.942170000000     0.660060000000     0.386998   
C47      C      0.365760000000     0.941630000000     0.709040000000     0.385792   
C48      C      0.316420000000     0.010670000000     0.661040000000     0.385616   
C49      C      0.664510000000     0.944210000000     0.312410000000     0.385989   
C50      C      0.713710000000     0.013050000000     0.360850000000     0.385687   
C51      C      0.664890000000     0.012580000000     0.311720000000     0.388019   
C52      C      0.713460000000     0.944510000000     0.361520000000     0.386944   
C53      C      0.549760000000     0.827860000000     0.209900000000     0.385736   
C54      C      0.480920000000     0.778130000000     0.161620000000     0.385793   
C55      C      0.480830000000     0.827070000000     0.210350000000     0.387577   
C56      C      0.549930000000     0.778790000000     0.161170000000     0.38626    
C57      C      0.164760000000     0.443670000000     0.812590000000     0.385748   
C58      C      0.212480000000     0.513100000000     0.861670000000     0.38558    
C59      C      0.163590000000     0.512210000000     0.812490000000     0.386638   
C60      C      0.213610000000     0.444660000000     0.861600000000     0.388306   
C61      C      0.365810000000     0.675770000000     0.045590000000     0.38582    
C62      C      0.315890000000     0.628070000000     0.976740000000     0.385744   
C63      C      0.365090000000     0.676900000000     0.977110000000     0.387276   
C64      C      0.316590000000     0.626990000000     0.045210000000     0.386345   
C65      C      0.165210000000     0.443200000000     0.209820000000     0.386778   
C66      C      0.214000000000     0.511690000000     0.160580000000     0.386639   
C67      C      0.165030000000     0.511650000000     0.209720000000     0.38607    
C68      C      0.214180000000     0.443240000000     0.160640000000     0.386288   
C69      C      0.363960000000     0.278800000000     0.975340000000     0.385778   
C70      C      0.316470000000     0.328030000000     0.044800000000     0.385638   
C71      C      0.365240000000     0.278730000000     0.043860000000     0.386624   
C72      C      0.315220000000     0.327970000000     0.976400000000     0.387949   
C73      C      0.479300000000     0.126830000000     0.208390000000     0.386011   
C74      C      0.549200000000     0.175610000000     0.160600000000     0.386025   
C75      C      0.548270000000     0.127100000000     0.209560000000     0.388323   
C76      C      0.480120000000     0.175550000000     0.159370000000     0.386878   
C77      C      0.050330000000     0.327370000000     0.709960000000     0.385606   
C78      C      0.980900000000     0.279140000000     0.660960000000     0.385348   
C79      C      0.981240000000     0.328190000000     0.709710000000     0.386167   
C80      C      0.049820000000     0.278340000000     0.661380000000     0.387212   
C81      C      0.865580000000     0.176190000000     0.545570000000     0.385963   
C82      C      0.816340000000     0.127880000000     0.476650000000     0.385886   
C83      C      0.865210000000     0.176920000000     0.477180000000     0.388052   
C84      C      0.816560000000     0.127090000000     0.545220000000     0.386793   
C85      C      0.165630000000     0.176270000000     0.545670000000     0.387438   
C86      C      0.214670000000     0.126710000000     0.477810000000     0.387111   
C87      C      0.166000000000     0.176070000000     0.477290000000     0.385649   
C88      C      0.214180000000     0.126870000000     0.546280000000     0.385426   
C89      C      0.363990000000     0.011580000000     0.311370000000     0.385188   
C90      C      0.315560000000     0.942680000000     0.360460000000     0.385376   
C91      C      0.364320000000     0.943180000000     0.311210000000     0.387361   
C92      C      0.315150000000     0.011070000000     0.360610000000     0.387276   
C93      C      0.050220000000     0.328080000000     0.313260000000     0.386757   
C94      C      0.981770000000     0.278400000000     0.361880000000     0.38767    
C95      C      0.981100000000     0.327150000000     0.313120000000     0.385692   
C96      C      0.050750000000     0.279290000000     0.362160000000     0.385829   
C97      C      0.143540000000     0.230480000000     0.435030000000    -0.0684585  
C98      C      0.121190000000     0.220140000000     0.424000000000     0.0237646  
C99      C      0.114320000000     0.194870000000     0.429840000000    -0.0683258  
C100     C      0.129110000000     0.180450000000     0.446790000000     0.0281744  
C101     C      0.151240000000     0.190900000000     0.458170000000    -0.11423    
C102     C      0.158470000000     0.215980000000     0.451850000000     0.0277864  
C103     C      0.104500000000     0.235870000000     0.407230000000     0.0237735  
C104     C      0.098080000000     0.260980000000     0.414140000000    -0.0681769  
C105     C      0.080980000000     0.275240000000     0.399280000000     0.0281294  
C106     C      0.070050000000     0.264760000000     0.377080000000    -0.114187   
C107     C      0.077040000000     0.239870000000     0.369810000000     0.0278444  
C108     C      0.093990000000     0.225560000000     0.384770000000    -0.0685246  
C109     C      0.230870000000     0.085060000000     0.421160000000    -0.0677623  
C110     C      0.257490000000     0.080960000000     0.424490000000     0.0242992  
C111     C      0.269810000000     0.092960000000     0.445270000000    -0.0678263  
C112     C      0.255990000000     0.108480000000     0.462070000000     0.0302179  
C113     C      0.229400000000     0.111730000000     0.459050000000    -0.115487   
C114     C      0.216920000000     0.099890000000     0.438510000000     0.0301551  
C115     C      0.272170000000     0.063730000000     0.406940000000     0.0243583  
C116     C      0.259920000000     0.043010000000     0.394760000000    -0.0678458  
C117     C      0.273780000000     0.026460000000     0.379000000000     0.0303354  
C118     C      0.300340000000     0.029680000000     0.375670000000    -0.11576    
C119     C      0.312720000000     0.050200000000     0.387630000000     0.0304585  
C120     C      0.298740000000     0.067300000000     0.402700000000    -0.0679071  
C121     C      0.906880000000     0.193940000000     0.420640000000    -0.068091   
C122     C      0.910890000000     0.220310000000     0.424350000000     0.0244855  
C123     C      0.898650000000     0.232210000000     0.445220000000    -0.0679975  
C124     C      0.883060000000     0.218220000000     0.461830000000     0.0306458  
C125     C      0.880000000000     0.191870000000     0.458490000000    -0.116299   
C126     C      0.891990000000     0.179830000000     0.437800000000     0.0308355  
C127     C      0.928360000000     0.235110000000     0.407130000000     0.0244698  
C128     C      0.949420000000     0.223180000000     0.395050000000    -0.0679366  
C129     C      0.966240000000     0.237150000000     0.379640000000     0.0305975  
C130     C      0.962920000000     0.263500000000     0.376590000000    -0.116128   
C131     C      0.942060000000     0.275580000000     0.388460000000     0.0307289  
C132     C      0.924690000000     0.261490000000     0.403170000000    -0.0680933  
C133     C      0.938280000000     0.225070000000     0.637970000000    -0.0683889  
C134     C      0.927560000000     0.235480000000     0.615660000000     0.0237355  
C135     C      0.933690000000     0.260730000000     0.608960000000    -0.0681382  
C136     C      0.950660000000     0.275040000000     0.623890000000     0.0282056  
C137     C      0.961740000000     0.264500000000     0.645980000000    -0.11399    
C138     C      0.955100000000     0.239450000000     0.653030000000     0.0277476  
C139     C      0.910820000000     0.219820000000     0.598870000000     0.0238728  
C140     C      0.917760000000     0.194650000000     0.592670000000    -0.068264   
C141     C      0.902860000000     0.180350000000     0.575680000000     0.0282949  
C142     C      0.880570000000     0.190830000000     0.564650000000    -0.114339   
C143     C      0.873290000000     0.215800000000     0.571360000000     0.0278958  
C144     C      0.888320000000     0.230170000000     0.588200000000    -0.0685408  
C145     C      0.106640000000     0.261020000000     0.619890000000    -0.0678996  
C146     C      0.102760000000     0.234670000000     0.615900000000     0.0243203  
C147     C      0.081660000000     0.222890000000     0.628080000000    -0.0678431  
C148     C      0.065030000000     0.236970000000     0.643590000000     0.0304046  
C149     C      0.068550000000     0.263300000000     0.646650000000    -0.115936   
C150     C      0.089450000000     0.275230000000     0.634700000000     0.0305093  
C151     C      0.120030000000     0.219760000000     0.598560000000     0.0244149  
C152     C      0.132350000000     0.231640000000     0.577720000000    -0.0679636  
C153     C      0.147850000000     0.217590000000     0.561070000000     0.0304985  
C154     C      0.150750000000     0.191210000000     0.564310000000    -0.11591    
C155     C      0.138620000000     0.179170000000     0.584930000000     0.0304602  
C156     C      0.123820000000     0.193340000000     0.602140000000    -0.067929   
C157     C      0.436030000000     0.104210000000     0.262110000000    -0.0685042  
C158     C      0.425500000000     0.081780000000     0.251760000000     0.0238242  
C159     C      0.431910000000     0.074910000000     0.226620000000    -0.0682546  
C160     C      0.449010000000     0.089780000000     0.212380000000     0.028324   
C161     C      0.459960000000     0.111950000000     0.222900000000    -0.114331   
C162     C      0.452990000000     0.119190000000     0.247800000000     0.0279201  
C163     C      0.408800000000     0.064990000000     0.267460000000     0.0237704  
C164     C      0.415680000000     0.059070000000     0.292710000000    -0.0682356  
C165     C      0.400890000000     0.042070000000     0.307080000000     0.0281935  
C166     C      0.378770000000     0.030720000000     0.296600000000    -0.114142   
C167     C      0.371530000000     0.037130000000     0.271540000000     0.0277562  
C168     C      0.386460000000     0.053990000000     0.257090000000    -0.0683715  
C169     C      0.417520000000     0.260030000000     0.090700000000    -0.0685241  
C170     C      0.410570000000     0.234850000000     0.096790000000     0.0240341  
C171     C      0.388110000000     0.224500000000     0.086040000000    -0.0686894  
C172     C      0.373090000000     0.238920000000     0.069260000000     0.0284027  
C173     C      0.380330000000     0.263940000000     0.062720000000    -0.114679   
C174     C      0.402610000000     0.274390000000     0.073790000000     0.0285699  
C175     C      0.427230000000     0.219200000000     0.113640000000     0.0239015  
C176     C      0.433360000000     0.193940000000     0.107000000000    -0.0683596  
C177     C      0.450210000000     0.179630000000     0.122050000000     0.0284842  
C178     C      0.461180000000     0.190220000000     0.144180000000    -0.114676   
C179     C      0.454550000000     0.215280000000     0.151140000000     0.0284922  
C180     C      0.437840000000     0.229650000000     0.135980000000    -0.0686507  
C181     C      0.268710000000     0.401110000000     0.137340000000    -0.068422   
C182     C      0.257890000000     0.390040000000     0.115390000000     0.0238219  
C183     C      0.232280000000     0.395850000000     0.109030000000    -0.068272   
C184     C      0.217980000000     0.412790000000     0.123950000000     0.0283349  
C185     C      0.228910000000     0.424200000000     0.145680000000    -0.114247   
C186     C      0.254340000000     0.417930000000     0.152390000000     0.0280608  
C187     C      0.273460000000     0.373250000000     0.098590000000     0.0237595  
C188     C      0.298720000000     0.380100000000     0.091870000000    -0.0682018  
C189     C      0.312840000000     0.365200000000     0.074750000000     0.0281501  
C190     C      0.302080000000     0.343010000000     0.064090000000    -0.114171   
C191     C      0.277060000000     0.335800000000     0.071330000000     0.0277932  
C192     C      0.262880000000     0.350820000000     0.088320000000    -0.0684841  
C193     C      0.142640000000     0.400980000000     0.264170000000    -0.0685451  
C194     C      0.120250000000     0.390050000000     0.253840000000     0.0239155  
C195     C      0.113360000000     0.395940000000     0.228580000000    -0.0684774  
C196     C      0.128190000000     0.412860000000     0.214170000000     0.0285518  
C197     C      0.150350000000     0.424160000000     0.224630000000    -0.114603   
C198     C      0.157590000000     0.417780000000     0.249700000000     0.0282754  
C199     C      0.103560000000     0.373300000000     0.269570000000     0.0238724  
C200     C      0.092940000000     0.350910000000     0.259230000000    -0.068587   
C201     C      0.076080000000     0.335910000000     0.273610000000     0.0283065  
C202     C      0.069310000000     0.343090000000     0.298590000000    -0.114596   
C203     C      0.080320000000     0.365250000000     0.309080000000     0.0283832  
C204     C      0.097310000000     0.380140000000     0.294750000000    -0.0683286  
C205     C      0.268320000000     0.554120000000     0.137460000000    -0.0685317  
C206     C      0.257600000000     0.564910000000     0.115330000000     0.0239319  
C207     C      0.232110000000     0.558840000000     0.108780000000    -0.0684531  
C208     C      0.217820000000     0.541900000000     0.123710000000     0.0285505  
C209     C      0.228670000000     0.530740000000     0.145610000000    -0.114628   
C210     C      0.253980000000     0.537300000000     0.152500000000     0.0283251  
C211     C      0.273210000000     0.581670000000     0.098550000000     0.0239326  
C212     C      0.262570000000     0.603970000000     0.088060000000    -0.0685662  
C213     C      0.276850000000     0.619000000000     0.071170000000     0.0282444  
C214     C      0.302010000000     0.611930000000     0.064260000000    -0.114504   
C215     C      0.312790000000     0.589850000000     0.075130000000     0.0284462  
C216     C      0.298570000000     0.574930000000     0.092140000000    -0.0684185  
C217     C      0.093200000000     0.350090000000     0.764010000000    -0.0683128  
C218     C      0.104160000000     0.372250000000     0.753490000000     0.0237495  
C219     C      0.098200000000     0.378810000000     0.728170000000    -0.0682463  
C220     C      0.081120000000     0.363960000000     0.713920000000     0.0280686  
C221     C      0.069700000000     0.342090000000     0.724600000000    -0.114081   
C222     C      0.076230000000     0.335110000000     0.749690000000     0.0278585  
C223     C      0.120760000000     0.389180000000     0.769160000000     0.0237454  
C224     C      0.113620000000     0.395460000000     0.794250000000    -0.0682402  
C225     C      0.128160000000     0.412800000000     0.808470000000     0.0280778  
C226     C      0.150280000000     0.424170000000     0.797980000000    -0.114162   
C227     C      0.157820000000     0.417370000000     0.773120000000     0.0278947  
C228     C      0.143160000000     0.400130000000     0.758840000000    -0.0682708  
C229     C      0.297200000000     0.577090000000     0.928900000000    -0.0683447  
C230     C      0.271540000000     0.583540000000     0.923440000000     0.0238118  
C231     C      0.260870000000     0.605390000000     0.934850000000    -0.0682662  
C232     C      0.275440000000     0.620250000000     0.951680000000     0.0278894  
C233     C      0.300920000000     0.613430000000     0.957620000000    -0.113984   
C234     C      0.311690000000     0.591810000000     0.945850000000     0.0281816  
C235     C      0.255760000000     0.566880000000     0.906670000000     0.0237907  
C236     C      0.266140000000     0.556750000000     0.884070000000    -0.068444   
C237     C      0.251860000000     0.539770000000     0.869140000000     0.0277925  
C238     C      0.226940000000     0.532400000000     0.876570000000    -0.114105   
C239     C      0.216370000000     0.542970000000     0.898900000000     0.0281394  
C240     C      0.230590000000     0.560080000000     0.913740000000    -0.068223   
C241     C      0.298310000000     0.369800000000     0.920180000000    -0.0681161  
C242     C      0.271760000000     0.373960000000     0.923950000000     0.0244918  
C243     C      0.259690000000     0.361810000000     0.944780000000    -0.0680726  
C244     C      0.273700000000     0.346150000000     0.961270000000     0.0307247  
C245     C      0.300240000000     0.342900000000     0.957860000000    -0.116375   
C246     C      0.312450000000     0.354820000000     0.937220000000     0.0308126  
C247     C      0.256940000000     0.391440000000     0.906830000000     0.024437   
C248     C      0.269090000000     0.412310000000     0.894850000000    -0.0679662  
C249     C      0.255110000000     0.429100000000     0.879470000000     0.0306756  
C250     C      0.228520000000     0.425940000000     0.876370000000    -0.116491   
C251     C      0.216210000000     0.405280000000     0.888160000000     0.0307562  
C252     C      0.230320000000     0.387950000000     0.902840000000    -0.0680838  
C253     C      0.439110000000     0.723490000000     0.138370000000    -0.0684217  
C254     C      0.427660000000     0.734170000000     0.116540000000     0.023908   
C255     C      0.433050000000     0.759680000000     0.110300000000    -0.0684861  
C256     C      0.449980000000     0.774040000000     0.125210000000     0.0283928  
C257     C      0.461800000000     0.763280000000     0.146810000000    -0.114312   
C258     C      0.455920000000     0.737940000000     0.153430000000     0.0280146  
C259     C      0.410910000000     0.718570000000     0.099690000000     0.0237388  
C260     C      0.418220000000     0.693730000000     0.092680000000    -0.0682461  
C261     C      0.403380000000     0.679680000000     0.075420000000     0.0281976  
C262     C      0.380810000000     0.690100000000     0.064910000000    -0.114285   
C263     C      0.373150000000     0.714710000000     0.072460000000     0.0278328  
C264     C      0.388080000000     0.728810000000     0.089580000000    -0.0684914  
C265     C      0.448470000000     0.860520000000     0.265450000000    -0.0678632  
C266     C      0.427480000000     0.872660000000     0.253450000000     0.0243452  
C267     C      0.423830000000     0.868590000000     0.227070000000    -0.0679358  
C268     C      0.441140000000     0.853740000000     0.213050000000     0.0304197  
C269     C      0.461940000000     0.841820000000     0.225200000000    -0.115827   
C270     C      0.465230000000     0.844960000000     0.251550000000     0.0303253  
C271     C      0.410080000000     0.890050000000     0.268170000000     0.02432    
C272     C      0.406090000000     0.886570000000     0.294570000000    -0.0678672  
C273     C      0.391220000000     0.903840000000     0.308580000000     0.030375   
C274     C      0.379210000000     0.924440000000     0.296390000000    -0.115778   
C275     C      0.382290000000     0.927580000000     0.270010000000     0.0303043  
C276     C      0.397860000000     0.910860000000     0.256130000000    -0.0678178  
C277     C      0.767920000000     0.055950000000     0.383520000000    -0.0683016  
C278     C      0.757230000000     0.066790000000     0.405660000000     0.0238067  
C279     C      0.731760000000     0.060680000000     0.412260000000    -0.0682919  
C280     C      0.717520000000     0.043600000000     0.397450000000     0.0281828  
C281     C      0.728360000000     0.032320000000     0.375590000000    -0.114123   
C282     C      0.753610000000     0.038970000000     0.368590000000     0.0279316  
C283     C      0.772890000000     0.083480000000     0.422510000000     0.0238289  
C284     C      0.798270000000     0.076700000000     0.428770000000    -0.0682882  
C285     C      0.812490000000     0.091360000000     0.446010000000     0.0281932  
C286     C      0.801710000000     0.113240000000     0.457280000000    -0.114227   
C287     C      0.776550000000     0.120410000000     0.450500000000     0.0279785  
C288     C      0.762260000000     0.105630000000     0.433370000000    -0.0683453  
C289     C      0.592180000000     0.851370000000     0.263910000000    -0.0684112  
C290     C      0.602820000000     0.873660000000     0.253380000000     0.0237196  
C291     C      0.596700000000     0.880180000000     0.228080000000    -0.0681853  
C292     C      0.579820000000     0.865090000000     0.213830000000     0.0281883  
C293     C      0.568810000000     0.843020000000     0.224500000000    -0.114143   
C294     C      0.575440000000     0.836160000000     0.249600000000     0.0278149  
C295     C      0.619470000000     0.890600000000     0.268970000000     0.0238332  
C296     C      0.612480000000     0.896900000000     0.294090000000    -0.0682862  
C297     C      0.627310000000     0.914000000000     0.308330000000     0.0282705  
C298     C      0.649570000000     0.925050000000     0.297810000000    -0.114372   
C299     C      0.656890000000     0.918270000000     0.272880000000     0.0279417  
C300     C      0.641940000000     0.901320000000     0.258580000000    -0.0685119  
C301     C      0.580490000000     0.094180000000     0.264990000000    -0.0680245  
C302     C      0.601680000000     0.082210000000     0.253180000000     0.0244806  
C303     C      0.605450000000     0.086150000000     0.226810000000    -0.068029   
C304     C      0.588080000000     0.100730000000     0.212600000000     0.0308141  
C305     C      0.567090000000     0.112490000000     0.224570000000    -0.116479   
C306     C      0.563660000000     0.109470000000     0.250920000000     0.0307644  
C307     C      0.619160000000     0.065110000000     0.268080000000     0.024506   
C308     C      0.623050000000     0.068880000000     0.294460000000    -0.0680738  
C309     C      0.637950000000     0.051830000000     0.308670000000     0.0308538  
C310     C      0.650090000000     0.031180000000     0.296700000000    -0.116399   
C311     C      0.647140000000     0.027780000000     0.270340000000     0.0307558  
C312     C      0.631530000000     0.044280000000     0.256260000000    -0.0680266  
C313     C      0.262090000000     0.053520000000     0.638580000000    -0.0682528  
C314     C      0.272850000000     0.064710000000     0.616660000000     0.023772   
C315     C      0.298380000000     0.058780000000     0.610100000000    -0.0682209  
C316     C      0.312620000000     0.041580000000     0.624760000000     0.0281647  
C317     C      0.301730000000     0.030010000000     0.646430000000    -0.114028   
C318     C      0.276410000000     0.036430000000     0.653380000000     0.0279097  
C319     C      0.257260000000     0.081630000000     0.600000000000     0.0237831  
C320     C      0.231940000000     0.074890000000     0.593410000000    -0.0682704  
C321     C      0.217820000000     0.089820000000     0.576330000000     0.0281198  
C322     C      0.228630000000     0.111930000000     0.565550000000    -0.114193   
C323     C      0.253710000000     0.119060000000     0.572690000000     0.0277378  
C324     C      0.267900000000     0.104020000000     0.589660000000    -0.068429   
C325     C      0.267780000000     0.850360000000     0.587030000000    -0.0686497  
C326     C      0.257210000000     0.872530000000     0.597880000000     0.0239795  
C327     C      0.231730000000     0.879230000000     0.591880000000    -0.0685419  
C328     C      0.217330000000     0.864410000000     0.574940000000     0.0286418  
C329     C      0.228020000000     0.842460000000     0.563740000000    -0.114743   
C330     C      0.253310000000     0.835430000000     0.570220000000     0.0284365  
C331     C      0.272930000000     0.889180000000     0.614660000000     0.0238958  
C332     C      0.262390000000     0.899680000000     0.637000000000    -0.0685867  
C333     C      0.276780000000     0.916440000000     0.652050000000     0.0284158  
C334     C      0.301970000000     0.923220000000     0.644980000000    -0.114686   
C335     C      0.312670000000     0.912350000000     0.622850000000     0.0284403  
C336     C      0.298330000000     0.895460000000     0.607910000000    -0.0683337  
C337     C      0.231090000000     0.879130000000     0.428680000000    -0.0682391  
C338     C      0.256560000000     0.872520000000     0.422550000000     0.0237693  
C339     C      0.267270000000     0.850430000000     0.433440000000    -0.0683877  
C340     C      0.252970000000     0.835510000000     0.450410000000     0.0280842  
C341     C      0.227700000000     0.842470000000     0.457040000000    -0.114236   
C342     C      0.216850000000     0.864320000000     0.445790000000     0.0282663  
C343     C      0.272170000000     0.889230000000     0.405700000000     0.0238112  
C344     C      0.261520000000     0.899750000000     0.383400000000    -0.0685115  
C345     C      0.275810000000     0.916630000000     0.368350000000     0.0277444  
C346     C      0.300990000000     0.923510000000     0.375400000000    -0.11431    
C347     C      0.311770000000     0.912600000000     0.397460000000     0.0281466  
C348     C      0.297550000000     0.895600000000     0.412390000000    -0.0683533  
C349     C      0.141610000000     0.724600000000     0.433610000000    -0.0686732  
C350     C      0.119110000000     0.734900000000     0.422890000000     0.0239699  
C351     C      0.112090000000     0.760040000000     0.429070000000    -0.0684723  
C352     C      0.126900000000     0.774360000000     0.446090000000     0.0285683  
C353     C      0.149170000000     0.763910000000     0.457200000000    -0.11485    
C354     C      0.156540000000     0.738980000000     0.450510000000     0.0284728  
C355     C      0.102380000000     0.719180000000     0.406180000000     0.0238444  
C356     C      0.091490000000     0.729550000000     0.383940000000    -0.0684967  
C357     C      0.074590000000     0.715130000000     0.369010000000     0.0282212  
C358     C      0.068050000000     0.690090000000     0.376150000000    -0.114593   
C359     C      0.079330000000     0.679570000000     0.398150000000     0.0285003  
C360     C      0.096360000000     0.693930000000     0.412960000000    -0.0684219  
C361     C      0.142190000000     0.554020000000     0.263880000000    -0.0684767  
C362     C      0.119770000000     0.564820000000     0.253460000000     0.0238361  
C363     C      0.112950000000     0.558790000000     0.228220000000    -0.0683362  
C364     C      0.127880000000     0.541870000000     0.213900000000     0.0282724  
C365     C      0.150070000000     0.530690000000     0.224440000000    -0.114234   
C366     C      0.157240000000     0.537220000000     0.249490000000     0.0280266  
C367     C      0.102930000000     0.581520000000     0.269130000000     0.0238358  
C368     C      0.096730000000     0.574730000000     0.294340000000    -0.0683489  
C369     C      0.079590000000     0.589520000000     0.308600000000     0.0282837  
C370     C      0.068370000000     0.611530000000     0.298030000000    -0.114303   
C371     C      0.075100000000     0.618680000000     0.273030000000     0.0280678  
C372     C      0.092110000000     0.603780000000     0.258710000000    -0.0685276  
C373     C      0.932860000000     0.574240000000     0.294120000000    -0.0684483  
C374     C      0.926990000000     0.580740000000     0.268770000000     0.023944   
C375     C      0.937860000000     0.602930000000     0.258250000000    -0.0685171  
C376     C      0.954600000000     0.618060000000     0.272640000000     0.0283551  
C377     C      0.960990000000     0.611200000000     0.297800000000    -0.11466    
C378     C      0.949730000000     0.589250000000     0.308450000000     0.0286163  
C379     C      0.910360000000     0.563850000000     0.253130000000     0.0239177  
C380     C      0.917480000000     0.557450000000     0.228060000000    -0.0683441  
C381     C      0.902710000000     0.540310000000     0.213820000000     0.0284226  
C382     C      0.880410000000     0.529300000000     0.224300000000    -0.114553   
C383     C      0.872960000000     0.536190000000     0.249160000000     0.0283713  
C384     C      0.887830000000     0.553210000000     0.263450000000    -0.0685776  
C385     C      0.887460000000     0.398940000000     0.264320000000    -0.0683566  
C386     C      0.909830000000     0.388000000000     0.253910000000     0.0238013  
C387     C      0.916670000000     0.393990000000     0.228670000000    -0.0682635  
C388     C      0.901860000000     0.411020000000     0.214370000000     0.028161   
C389     C      0.879760000000     0.422370000000     0.224920000000    -0.114131   
C390     C      0.872530000000     0.415870000000     0.249940000000     0.0279833  
C391     C      0.926690000000     0.371350000000     0.269610000000     0.0237781  
C392     C      0.932900000000     0.378250000000     0.294780000000    -0.0682143  
C393     C      0.950190000000     0.363640000000     0.309030000000     0.0281077  
C394     C      0.961590000000     0.341700000000     0.298490000000    -0.114065   
C395     C      0.954840000000     0.334410000000     0.273550000000     0.0279398  
C396     C      0.937650000000     0.349130000000     0.259240000000    -0.0682856  
C397     C      0.799210000000     0.385280000000     0.119650000000    -0.0681213  
C398     C      0.772600000000     0.388850000000     0.115670000000     0.0244424  
C399     C      0.760470000000     0.409610000000     0.127870000000    -0.0679866  
C400     C      0.774480000000     0.426240000000     0.143400000000     0.0305829  
C401     C      0.801070000000     0.423020000000     0.146460000000    -0.116307   
C402     C      0.813340000000     0.402450000000     0.134500000000     0.0307682  
C403     C      0.757760000000     0.371630000000     0.098290000000     0.02445    
C404     C      0.769850000000     0.359730000000     0.077330000000    -0.0680358  
C405     C      0.755810000000     0.344380000000     0.060560000000     0.0306391  
C406     C      0.729250000000     0.341210000000     0.063830000000    -0.116166   
C407     C      0.717020000000     0.352870000000     0.084610000000     0.0306663  
C408     C      0.731180000000     0.367530000000     0.101920000000    -0.0680598  
C409     C      0.592730000000     0.229340000000     0.138440000000    -0.0683843  
C410     C      0.603690000000     0.218860000000     0.116260000000     0.0238255  
C411     C      0.597490000000     0.193660000000     0.109480000000    -0.0683651  
C412     C      0.580180000000     0.179490000000     0.124160000000     0.0282629  
C413     C      0.568760000000     0.190140000000     0.146040000000    -0.114406   
C414     C      0.575530000000     0.215110000000     0.153230000000     0.0279993  
C415     C      0.620500000000     0.234480000000     0.099490000000     0.0237795  
C416     C      0.613630000000     0.259680000000     0.093390000000    -0.0683332  
C417     C      0.628370000000     0.273880000000     0.076210000000     0.0281805  
C418     C      0.650420000000     0.263270000000     0.064820000000    -0.114205   
C419     C      0.657690000000     0.238300000000     0.071440000000     0.0279018  
C420     C      0.642830000000     0.224020000000     0.088530000000    -0.0683292  
C421     C      0.423700000000     0.085000000000     0.794530000000    -0.068067   
C422     C      0.427640000000     0.080930000000     0.768210000000     0.0245276  
C423     C      0.448680000000     0.093150000000     0.756380000000    -0.0680717  
C424     C      0.465220000000     0.108800000000     0.770420000000     0.0306598  
C425     C      0.461660000000     0.111950000000     0.796730000000    -0.116312   
C426     C      0.440790000000     0.099960000000     0.808700000000     0.0306951  
C427     C      0.410490000000     0.063430000000     0.753370000000     0.0243526  
C428     C      0.398360000000     0.042510000000     0.765310000000    -0.0679222  
C429     C      0.383000000000     0.025700000000     0.751310000000     0.0305886  
C430     C      0.380070000000     0.028860000000     0.724930000000    -0.116005   
C431     C      0.392000000000     0.049560000000     0.712830000000     0.0305675  
C432     C      0.406650000000     0.066920000000     0.726940000000    -0.0679646  
C433     C      0.595360000000     0.194070000000     0.913910000000    -0.0684274  
C434     C      0.601500000000     0.219310000000     0.907240000000     0.0239995  
C435     C      0.590730000000     0.229800000000     0.885000000000    -0.0686013  
C436     C      0.573880000000     0.215460000000     0.869930000000     0.0283346  
C437     C      0.567280000000     0.190390000000     0.876910000000    -0.114551   
C438     C      0.578380000000     0.179790000000     0.898960000000     0.028529   
C439     C      0.618370000000     0.234890000000     0.923970000000     0.023932   
C440     C      0.611600000000     0.260090000000     0.930170000000    -0.068398   
C441     C      0.626670000000     0.274330000000     0.947050000000     0.0284926  
C442     C      0.648940000000     0.263730000000     0.957990000000    -0.114509   
C443     C      0.656040000000     0.238710000000     0.951310000000     0.0283034  
C444     C      0.640860000000     0.224420000000     0.934550000000    -0.0684901  
C445     C      0.415170000000     0.260220000000     0.927320000000    -0.0682905  
C446     C      0.408140000000     0.235050000000     0.921290000000     0.0238383  
C447     C      0.385760000000     0.224750000000     0.932300000000    -0.0683331  
C448     C      0.371010000000     0.239150000000     0.949360000000     0.0280129  
C449     C      0.378450000000     0.264100000000     0.955930000000    -0.114259   
C450     C      0.400540000000     0.274550000000     0.944490000000     0.0282963  
C451     C      0.424860000000     0.219260000000     0.904590000000     0.0238206  
C452     C      0.435850000000     0.229600000000     0.882350000000    -0.068362   
C453     C      0.452990000000     0.215230000000     0.867630000000     0.0279988  
C454     C      0.459660000000     0.190280000000     0.874940000000    -0.114167   
C455     C      0.448210000000     0.179770000000     0.896870000000     0.0282011  
C456     C      0.430960000000     0.194070000000     0.911480000000    -0.0683305  
C457     C      0.887150000000     0.724780000000     0.433620000000    -0.0683742  
C458     C      0.909620000000     0.735020000000     0.422750000000     0.023788   
C459     C      0.916620000000     0.760220000000     0.428730000000    -0.0681865  
C460     C      0.901820000000     0.774670000000     0.445680000000     0.028125   
C461     C      0.879580000000     0.764290000000     0.456920000000    -0.114002   
C462     C      0.872230000000     0.739290000000     0.450440000000     0.0279422  
C463     C      0.926320000000     0.719210000000     0.406050000000     0.0238292  
C464     C      0.932360000000     0.693980000000     0.412890000000    -0.0682446  
C465     C      0.949370000000     0.679570000000     0.398100000000     0.0282592  
C466     C      0.960610000000     0.690000000000     0.376030000000    -0.114146   
C467     C      0.954040000000     0.715020000000     0.368830000000     0.0280146  
C468     C      0.937160000000     0.729490000000     0.383740000000    -0.0683696  
C469     C      0.761660000000     0.851890000000     0.433920000000    -0.0686014  
C470     C      0.772410000000     0.874030000000     0.423190000000     0.0239227  
C471     C      0.797950000000     0.880490000000     0.429210000000    -0.0685148  
C472     C      0.812240000000     0.865460000000     0.446050000000     0.0286207  
C473     C      0.801360000000     0.843550000000     0.457150000000    -0.114756   
C474     C      0.776010000000     0.836750000000     0.450640000000     0.0283648  
C475     C      0.756810000000     0.890920000000     0.406550000000     0.0239661  
C476     C      0.767430000000     0.901500000000     0.384270000000    -0.0686691  
C477     C      0.753170000000     0.918480000000     0.369360000000     0.02847    
C478     C      0.728030000000     0.925400000000     0.376500000000    -0.114842   
C479     C      0.717270000000     0.914460000000     0.398550000000     0.0285969  
C480     C      0.731480000000     0.897350000000     0.413370000000    -0.0685167  
C481     C      0.936830000000     0.729620000000     0.636920000000    -0.0686556  
C482     C      0.926110000000     0.719300000000     0.614570000000     0.0239444  
C483     C      0.932230000000     0.694100000000     0.607720000000    -0.0684234  
C484     C      0.949220000000     0.679740000000     0.622550000000     0.0285649  
C485     C      0.960350000000     0.690210000000     0.644660000000    -0.114638   
C486     C      0.953700000000     0.715200000000     0.651860000000     0.0284223  
C487     C      0.909470000000     0.735080000000     0.597830000000     0.0240423  
C488     C      0.887020000000     0.724820000000     0.586950000000    -0.0687086  
C489     C      0.872160000000     0.739290000000     0.570080000000     0.0285274  
C490     C      0.879560000000     0.764270000000     0.563570000000    -0.114984   
C491     C      0.901780000000     0.774660000000     0.574820000000     0.0287614  
C492     C      0.916520000000     0.760250000000     0.591820000000    -0.0685952  
C493     C      0.112180000000     0.759990000000     0.592130000000    -0.0683281  
C494     C      0.119070000000     0.734770000000     0.598180000000     0.0237942  
C495     C      0.141490000000     0.724410000000     0.587330000000    -0.0684149  
C496     C      0.156470000000     0.738810000000     0.570470000000     0.0279769  
C497     C      0.149230000000     0.763820000000     0.563930000000    -0.114092   
C498     C      0.127050000000     0.774320000000     0.575150000000     0.0282493  
C499     C      0.102290000000     0.719070000000     0.614910000000     0.0238165  
C500     C      0.091430000000     0.729460000000     0.637170000000    -0.0684825  
C501     C      0.074470000000     0.715090000000     0.652090000000     0.0280536  
C502     C      0.067840000000     0.690070000000     0.644970000000    -0.114215   
C503     C      0.079100000000     0.679530000000     0.622950000000     0.0282024  
C504     C      0.096180000000     0.693840000000     0.608140000000    -0.0682942  
C505     C      0.111210000000     0.558890000000     0.793700000000    -0.0684844  
C506     C      0.118210000000     0.565030000000     0.768540000000     0.0239465  
C507     C      0.140780000000     0.554420000000     0.758280000000    -0.0685768  
C508     C      0.155820000000     0.537700000000     0.772730000000     0.0283834  
C509     C      0.148500000000     0.531080000000     0.797710000000    -0.114677   
C510     C      0.126150000000     0.542040000000     0.808100000000     0.0286001  
C511     C      0.101460000000     0.581670000000     0.752770000000     0.0239331  
C512     C      0.095520000000     0.574870000000     0.727500000000    -0.0685233  
C513     C      0.078570000000     0.589690000000     0.713060000000     0.0285651  
C514     C      0.067300000000     0.611720000000     0.723520000000    -0.114712   
C515     C      0.073740000000     0.618850000000     0.748590000000     0.0284052  
C516     C      0.090560000000     0.603930000000     0.763090000000    -0.0686367  
C517     C      0.767970000000     0.900930000000     0.637310000000    -0.0684657  
C518     C      0.757210000000     0.890230000000     0.615150000000     0.0238779  
C519     C      0.731730000000     0.896390000000     0.608650000000    -0.0683358  
C520     C      0.717510000000     0.913350000000     0.623630000000     0.028348   
C521     C      0.728400000000     0.924430000000     0.645560000000    -0.114421   
C522     C      0.753690000000     0.917780000000     0.652410000000     0.0280857  
C523     C      0.772770000000     0.873490000000     0.598280000000     0.0237546  
C524     C      0.798190000000     0.880140000000     0.591980000000    -0.068281   
C525     C      0.812380000000     0.865280000000     0.574880000000     0.0282138  
C526     C      0.801520000000     0.843350000000     0.563790000000    -0.114099   
C527     C      0.776300000000     0.836350000000     0.570580000000     0.0279149  
C528     C      0.762060000000     0.851320000000     0.587560000000    -0.0683132  
C529     C      0.642130000000     0.053800000000     0.764560000000    -0.0683146  
C530     C      0.619920000000     0.064970000000     0.754100000000     0.0238234  
C531     C      0.613250000000     0.059300000000     0.728730000000    -0.0683212  
C532     C      0.628120000000     0.042400000000     0.714330000000     0.0284365  
C533     C      0.650120000000     0.030890000000     0.724900000000    -0.114316   
C534     C      0.657140000000     0.037030000000     0.750090000000     0.0281002  
C535     C      0.603170000000     0.081720000000     0.769790000000     0.0238448  
C536     C      0.596550000000     0.074720000000     0.794830000000    -0.0682668  
C537     C      0.579400000000     0.089580000000     0.809040000000     0.0282353  
C538     C      0.568630000000     0.111850000000     0.798570000000    -0.114279   
C539     C      0.575810000000     0.119210000000     0.773760000000     0.0278651  
C540     C      0.592820000000     0.104250000000     0.759500000000    -0.0685029  
C541     C      0.762450000000     0.104110000000     0.588000000000    -0.0685466  
C542     C      0.773080000000     0.081850000000     0.598580000000     0.023949   
C543     C      0.798460000000     0.075120000000     0.592240000000    -0.0683521  
C544     C      0.812710000000     0.090010000000     0.575220000000     0.02843    
C545     C      0.801940000000     0.112060000000     0.564270000000    -0.11458    
C546     C      0.776750000000     0.119110000000     0.571100000000     0.0283249  
C547     C      0.757460000000     0.065110000000     0.615390000000     0.0239076  
C548     C      0.768160000000     0.054350000000     0.637540000000    -0.0684597  
C549     C      0.753810000000     0.037550000000     0.652600000000     0.0281986  
C550     C      0.728490000000     0.031010000000     0.645720000000    -0.114417   
C551     C      0.717660000000     0.042140000000     0.623800000000     0.0285156  
C552     C      0.731950000000     0.059060000000     0.608850000000    -0.068415   
C553     C      0.597260000000     0.880110000000     0.794760000000    -0.0683389  
C554     C      0.603540000000     0.873310000000     0.769580000000     0.0239284  
C555     C      0.593010000000     0.850900000000     0.759210000000    -0.068623   
C556     C      0.576170000000     0.835850000000     0.773560000000     0.0283905  
C557     C      0.569350000000     0.842990000000     0.798530000000    -0.114607   
C558     C      0.580290000000     0.865160000000     0.809060000000     0.0284313  
C559     C      0.620190000000     0.890130000000     0.753870000000     0.0239465  
C560     C      0.613260000000     0.896070000000     0.728640000000    -0.0684715  
C561     C      0.628050000000     0.913060000000     0.714250000000     0.0285016  
C562     C      0.650200000000     0.924370000000     0.724720000000    -0.114582   
C563     C      0.657470000000     0.917950000000     0.749760000000     0.0283076  
C564     C      0.642560000000     0.901090000000     0.764220000000    -0.0686146  
C565     C      0.439170000000     0.849450000000     0.757680000000    -0.0682865  
C566     C      0.427660000000     0.871350000000     0.768150000000     0.023715   
C567     C      0.433080000000     0.877860000000     0.793600000000    -0.0682412  
C568     C      0.450100000000     0.863170000000     0.808080000000     0.0281337  
C569     C      0.461980000000     0.841510000000     0.797500000000    -0.114089   
C570     C      0.456060000000     0.834610000000     0.772240000000     0.0279235  
C571     C      0.410860000000     0.887990000000     0.752380000000     0.0238933  
C572     C      0.418140000000     0.894710000000     0.727440000000    -0.0683532  
C573     C      0.403280000000     0.911790000000     0.713210000000     0.0281995  
C574     C      0.380700000000     0.922390000000     0.723540000000    -0.114272   
C575     C      0.373070000000     0.915110000000     0.748230000000     0.0279517  
C576     C      0.388030000000     0.898170000000     0.762530000000    -0.0686657  
C577     C      0.424460000000     0.761430000000     0.902840000000    -0.0679924  
C578     C      0.428090000000     0.735040000000     0.906800000000     0.024368   
C579     C      0.449110000000     0.723090000000     0.894650000000    -0.0679144  
C580     C      0.465910000000     0.737050000000     0.879200000000     0.0304154  
C581     C      0.462630000000     0.763410000000     0.876160000000    -0.116022   
C582     C      0.441800000000     0.775500000000     0.888080000000     0.0305468  
C583     C      0.410660000000     0.720250000000     0.924090000000     0.0243345  
C584     C      0.398460000000     0.732180000000     0.944970000000    -0.0677957  
C585     C      0.382900000000     0.718210000000     0.961640000000     0.0302672  
C586     C      0.379830000000     0.691850000000     0.958360000000    -0.115702   
C587     C      0.391790000000     0.679780000000     0.937650000000     0.0303683  
C588     C      0.406640000000     0.693880000000     0.920440000000    -0.0678795  
C589     C      0.614540000000     0.695330000000     0.929800000000    -0.0684247  
C590     C      0.621130000000     0.720750000000     0.924360000000     0.0238593  
C591     C      0.643180000000     0.731270000000     0.935820000000    -0.0683337  
C592     C      0.658110000000     0.716750000000     0.952640000000     0.0280704  
C593     C      0.651150000000     0.691500000000     0.958540000000    -0.114323   
C594     C      0.629310000000     0.680910000000     0.946740000000     0.0284082  
C595     C      0.604440000000     0.736410000000     0.907520000000     0.0237918  
C596     C      0.594350000000     0.726140000000     0.884860000000    -0.0684975  
C597     C      0.577320000000     0.740310000000     0.869850000000     0.027845   
C598     C      0.569870000000     0.765020000000     0.877260000000    -0.11412    
C599     C      0.580400000000     0.775490000000     0.899660000000     0.028129   
C600     C      0.597560000000     0.761370000000     0.914580000000    -0.0682096  
C601     C      0.732070000000     0.573920000000     0.092360000000    -0.0683464  
C602     C      0.757540000000     0.580400000000     0.098630000000     0.0238356  
C603     C      0.768290000000     0.602660000000     0.088150000000    -0.0684924  
C604     C      0.754010000000     0.617900000000     0.071440000000     0.0278925  
C605     C      0.728730000000     0.611090000000     0.064690000000    -0.114385   
C606     C      0.717860000000     0.589040000000     0.075510000000     0.0283723  
C607     C      0.773080000000     0.563480000000     0.115320000000     0.0237418  
C608     C      0.762390000000     0.552820000000     0.137530000000    -0.0683935  
C609     C      0.776680000000     0.535930000000     0.152560000000     0.0278069  
C610     C      0.801910000000     0.529160000000     0.145580000000    -0.114258   
C611     C      0.812720000000     0.540150000000     0.123570000000     0.0282357  
C612     C      0.798500000000     0.557180000000     0.108660000000    -0.0682694  
C613     C      0.642600000000     0.729840000000     0.088490000000    -0.0684886  
C614     C      0.620130000000     0.719470000000     0.099220000000     0.0238699  
C615     C      0.613240000000     0.694270000000     0.093120000000    -0.0682692  
C616     C      0.628160000000     0.679940000000     0.076180000000     0.0282619  
C617     C      0.650410000000     0.690440000000     0.065090000000    -0.114254   
C618     C      0.657640000000     0.715450000000     0.071680000000     0.0280965  
C619     C      0.603360000000     0.735150000000     0.115970000000     0.0238397  
C620     C      0.592600000000     0.724740000000     0.138260000000    -0.0684708  
C621     C      0.575730000000     0.739110000000     0.153270000000     0.028138   
C622     C      0.569100000000     0.764150000000     0.146210000000    -0.114258   
C623     C      0.580240000000     0.774700000000     0.124150000000     0.0282846  
C624     C      0.597240000000     0.760390000000     0.109250000000    -0.0682414  
C625     C      0.886310000000     0.554020000000     0.757330000000    -0.0683498  
C626     C      0.908600000000     0.565150000000     0.767680000000     0.0238633  
C627     C      0.915480000000     0.559350000000     0.792950000000    -0.068353   
C628     C      0.900770000000     0.542320000000     0.807360000000     0.0282087  
C629     C      0.878730000000     0.530800000000     0.796880000000    -0.114204   
C630     C      0.871460000000     0.537100000000     0.771810000000     0.0279474  
C631     C      0.925280000000     0.581910000000     0.751920000000     0.0237392  
C632     C      0.931600000000     0.575010000000     0.726770000000    -0.0681992  
C633     C      0.948730000000     0.589800000000     0.712490000000     0.0282227  
C634     C      0.959820000000     0.611910000000     0.722980000000    -0.11402    
C635     C      0.952950000000     0.619200000000     0.747890000000     0.0279712  
C636     C      0.935940000000     0.604310000000     0.762230000000    -0.0682826  
C637     C      0.759870000000     0.543650000000     0.894410000000    -0.0678421  
C638     C      0.772110000000     0.564470000000     0.906410000000     0.0243773  
C639     C      0.798680000000     0.568010000000     0.902150000000    -0.0679661  
C640     C      0.812670000000     0.550750000000     0.887280000000     0.0305804  
C641     C      0.800300000000     0.530100000000     0.875530000000    -0.115967   
C642     C      0.773730000000     0.526930000000     0.878840000000     0.0303535  
C643     C      0.757460000000     0.581810000000     0.923880000000     0.0243558  
C644     C      0.730830000000     0.585870000000     0.920570000000    -0.0679077  
C645     C      0.716890000000     0.600680000000     0.937930000000     0.0304588  
C646     C      0.729360000000     0.612540000000     0.958460000000    -0.115804   
C647     C      0.755970000000     0.609390000000     0.961410000000     0.0303539  
C648     C      0.769790000000     0.593890000000     0.944600000000    -0.0678397  
C649     C      0.797980000000     0.395950000000     0.913510000000    -0.0682291  
C650     C      0.772580000000     0.389590000000     0.906830000000     0.0238302  
C651     C      0.761930000000     0.400120000000     0.884540000000    -0.0685677  
C652     C      0.776230000000     0.416960000000     0.869480000000     0.0279659  
C653     C      0.801430000000     0.423820000000     0.876490000000    -0.114296   
C654     C      0.812210000000     0.412940000000     0.898560000000     0.028302   
C655     C      0.756980000000     0.372780000000     0.923590000000     0.0237976  
C656     C      0.767660000000     0.350550000000     0.934220000000    -0.0684098  
C657     C      0.753310000000     0.335430000000     0.950970000000     0.0278684  
C658     C      0.728030000000     0.342330000000     0.957640000000    -0.114129   
C659     C      0.717230000000     0.364350000000     0.946680000000     0.0282705  
C660     C      0.731510000000     0.379350000000     0.929770000000    -0.0682908  
C661     C      0.917490000000     0.396350000000     0.793920000000    -0.0682325  
C662     C      0.910810000000     0.390270000000     0.768650000000     0.023829   
C663     C      0.888380000000     0.400960000000     0.758150000000    -0.068374   
C664     C      0.873180000000     0.417680000000     0.772480000000     0.0280659  
C665     C      0.880190000000     0.424230000000     0.797560000000    -0.114102   
C666     C      0.902410000000     0.413200000000     0.808180000000     0.0282681  
C667     C      0.927700000000     0.373550000000     0.753090000000     0.0238214  
C668     C      0.933960000000     0.380230000000     0.727860000000    -0.0682325  
C669     C      0.951030000000     0.365310000000     0.713650000000     0.0282607  
C670     C      0.962110000000     0.343270000000     0.724290000000    -0.11413    
C671     C      0.955370000000     0.336260000000     0.749320000000     0.0281308  
C672     C      0.938430000000     0.351290000000     0.763590000000    -0.0683707  
H1       H      0.097070000000     0.186460000000     0.421850000000     0.047435   
H2       H      0.123000000000     0.161190000000     0.451200000000     0.0347619  
H3       H      0.175400000000     0.224620000000     0.460270000000     0.0344959  
H4       H      0.149430000000     0.249820000000     0.430700000000     0.0473093  
H5       H      0.105680000000     0.269370000000     0.431470000000     0.0474336  
H6       H      0.076070000000     0.294360000000     0.405420000000     0.0348484  
H7       H      0.069020000000     0.231210000000     0.352800000000     0.0345724  
H8       H      0.098790000000     0.206350000000     0.378820000000     0.0472128  
H9       H      0.290030000000     0.089950000000     0.449100000000     0.0469292  
H10      H      0.265950000000     0.117220000000     0.478000000000     0.0312613  
H11      H      0.196420000000     0.102360000000     0.435700000000     0.030814   
H12      H      0.220630000000     0.076900000000     0.405140000000     0.0467466  
H13      H      0.239740000000     0.039010000000     0.397840000000     0.0469255  
H14      H      0.263880000000     0.010540000000     0.370170000000     0.0312508  
H15      H      0.333210000000     0.053160000000     0.385110000000     0.0307344  
H16      H      0.308920000000     0.083290000000     0.410980000000     0.0468074  
H17      H      0.901580000000     0.252230000000     0.449310000000     0.0469556  
H18      H      0.874200000000     0.227840000000     0.477890000000     0.0309406  
H19      H      0.889660000000     0.159510000000     0.434760000000     0.0305431  
H20      H      0.915210000000     0.184040000000     0.404520000000     0.046895   
H21      H      0.953500000000     0.203150000000     0.397940000000     0.0469996  
H22      H      0.982420000000     0.227500000000     0.370870000000     0.0311193  
H23      H      0.939030000000     0.295910000000     0.386140000000     0.0305855  
H24      H      0.908440000000     0.271410000000     0.411400000000     0.0468727  
H25      H      0.925930000000     0.269200000000     0.591740000000     0.0474667  
H26      H      0.955320000000     0.294280000000     0.617920000000     0.0349122  
H27      H      0.963270000000     0.230730000000     0.669920000000     0.0346395  
H28      H      0.933710000000     0.205750000000     0.643740000000     0.0472987  
H29      H      0.935130000000     0.186240000000     0.600400000000     0.0475554  
H30      H      0.909010000000     0.161180000000     0.570980000000     0.0348931  
H31      H      0.856240000000     0.224470000000     0.563230000000     0.0345495  
H32      H      0.882350000000     0.249420000000     0.592820000000     0.0472991  
H33      H      0.077410000000     0.202890000000     0.625180000000     0.0468348  
H34      H      0.048800000000     0.227430000000     0.652410000000     0.03094    
H35      H      0.092640000000     0.295530000000     0.637020000000     0.0305213  
H36      H      0.122940000000     0.270840000000     0.611610000000     0.0467803  
H37      H      0.129590000000     0.251690000000     0.573700000000     0.0469295  
H38      H      0.156830000000     0.227220000000     0.545070000000     0.0310624  
H39      H      0.140820000000     0.158830000000     0.587900000000     0.0306379  
H40      H      0.115410000000     0.183430000000     0.618210000000     0.0468071  
H41      H      0.424290000000     0.057610000000     0.218210000000     0.0475551  
H42      H      0.453910000000     0.083660000000     0.193240000000     0.0348847  
H43      H      0.461030000000     0.136160000000     0.256490000000     0.0345683  
H44      H      0.431240000000     0.110120000000     0.281340000000     0.0472481  
H45      H      0.432940000000     0.067030000000     0.301150000000     0.047464   
H46      H      0.407010000000     0.037600000000     0.326330000000     0.0348308  
H47      H      0.354600000000     0.028740000000     0.262880000000     0.03461    
H48      H      0.380550000000     0.058390000000     0.237760000000     0.0473061  
H49      H      0.382150000000     0.205230000000     0.090590000000     0.047404   
H50      H      0.356030000000     0.230280000000     0.061110000000     0.0346949  
H51      H      0.408730000000     0.293610000000     0.069200000000     0.0347377  
H52      H      0.434870000000     0.268440000000     0.098480000000     0.0475431  
H53      H      0.425670000000     0.185460000000     0.089750000000     0.0474658  
H54      H      0.454860000000     0.160370000000     0.116150000000     0.0347524  
H55      H      0.462620000000     0.224020000000     0.168080000000     0.0347642  
H56      H      0.433240000000     0.248970000000     0.141720000000     0.0474096  
H57      H      0.223480000000     0.387840000000     0.092080000000     0.0473279  
H58      H      0.198440000000     0.417160000000     0.118240000000     0.0347662  
H59      H      0.263360000000     0.426360000000     0.169010000000     0.0346145  
H60      H      0.288320000000     0.396800000000     0.142850000000     0.0473118  
H61      H      0.307320000000     0.397420000000     0.099270000000     0.0474618  
H62      H      0.332080000000     0.371290000000     0.069630000000     0.0348662  
H63      H      0.268180000000     0.318810000000     0.063520000000     0.0345951  
H64      H      0.243560000000     0.344910000000     0.093350000000     0.0472062  
H65      H      0.096070000000     0.388020000000     0.220180000000     0.0474754  
H66      H      0.122070000000     0.417320000000     0.194920000000     0.0346961  
H67      H      0.174560000000     0.426120000000     0.258340000000     0.0346298  
H68      H      0.148560000000     0.396590000000     0.283500000000     0.0473258  
H69      H      0.097620000000     0.345020000000     0.239970000000     0.0473268  
H70      H      0.068000000000     0.318940000000     0.264950000000     0.0347448  
H71      H      0.075560000000     0.371310000000     0.328270000000     0.0347529  
H72      H      0.104990000000     0.397430000000     0.303150000000     0.04744    
H73      H      0.223400000000     0.566650000000     0.091700000000     0.0474732  
H74      H      0.198370000000     0.537310000000     0.117850000000     0.0347156  
H75      H      0.262920000000     0.529080000000     0.169270000000     0.0346395  
H76      H      0.287850000000     0.558650000000     0.143120000000     0.0473164  
H77      H      0.243160000000     0.609780000000     0.092860000000     0.0472957  
H78      H      0.267970000000     0.635910000000     0.063200000000     0.0347094  
H79      H      0.332130000000     0.583870000000     0.070260000000     0.0348003  
H80      H      0.307190000000     0.557710000000     0.099720000000     0.0475311  
H81      H      0.106120000000     0.395910000000     0.719610000000     0.0473743  
H82      H      0.076590000000     0.369870000000     0.694630000000     0.0347716  
H83      H      0.067820000000     0.318370000000     0.758490000000     0.0346618  
H84      H      0.097640000000     0.344410000000     0.783390000000     0.0472147  
H85      H      0.096320000000     0.387560000000     0.802660000000     0.0473692  
H86      H      0.121820000000     0.417540000000     0.827580000000     0.0347642  
H87      H      0.174770000000     0.425730000000     0.764470000000     0.03471    
H88      H      0.149280000000     0.395470000000     0.739630000000     0.0471919  
H89      H      0.241210000000     0.610950000000     0.930810000000     0.0473058  
H90      H      0.266550000000     0.636780000000     0.960400000000     0.0346951  
H91      H      0.331270000000     0.586020000000     0.949950000000     0.0347681  
H92      H      0.305880000000     0.560220000000     0.920640000000     0.0474257  
H93      H      0.285390000000     0.561850000000     0.877980000000     0.0471661  
H94      H      0.260590000000     0.532060000000     0.852030000000     0.0346858  
H95      H      0.197210000000     0.537760000000     0.905170000000     0.0349253  
H96      H      0.222160000000     0.567370000000     0.931180000000     0.0475583  
H97      H      0.239530000000     0.364850000000     0.948910000000     0.0469897  
H98      H      0.263950000000     0.337340000000     0.977290000000     0.0310886  
H99      H      0.332920000000     0.352350000000     0.934130000000     0.030597   
H100     H      0.308340000000     0.378070000000     0.904090000000     0.0468645  
H101     H      0.289320000000     0.416240000000     0.897780000000     0.0469204  
H102     H      0.264930000000     0.445120000000     0.870750000000     0.0310239  
H103     H      0.195710000000     0.402370000000     0.885780000000     0.0306055  
H104     H      0.220220000000     0.371850000000     0.911000000000     0.0468512  
H105     H      0.424750000000     0.768370000000     0.093450000000     0.0473795  
H106     H      0.454030000000     0.793520000000     0.119570000000     0.0346554  
H107     H      0.464680000000     0.729060000000     0.169950000000     0.0345486  
H108     H      0.435130000000     0.703940000000     0.143770000000     0.0473539  
H109     H      0.435840000000     0.685420000000     0.099950000000     0.0475171  
H110     H      0.409820000000     0.660760000000     0.070070000000     0.034875   
H111     H      0.355850000000     0.723310000000     0.064800000000     0.0346215  
H112     H      0.381820000000     0.747810000000     0.094840000000     0.0471546  
H113     H      0.407630000000     0.876850000000     0.217090000000     0.046759   
H114     H      0.438140000000     0.851360000000     0.192730000000     0.0305552  
H115     H      0.481360000000     0.836170000000     0.261260000000     0.0310682  
H116     H      0.452550000000     0.863480000000     0.285470000000     0.0468844  
H117     H      0.414400000000     0.870520000000     0.304600000000     0.0467541  
H118     H      0.388880000000     0.900940000000     0.328920000000     0.0306493  
H119     H      0.373410000000     0.943550000000     0.260270000000     0.0309789  
H120     H      0.400770000000     0.914800000000     0.236070000000     0.0468248  
H121     H      0.723060000000     0.068500000000     0.429340000000     0.0474507  
H122     H      0.698100000000     0.038970000000     0.403380000000     0.0348401  
H123     H      0.762540000000     0.030680000000     0.351860000000     0.0347586  
H124     H      0.787420000000     0.060500000000     0.377810000000     0.0472783  
H125     H      0.806910000000     0.059590000000     0.420950000000     0.0474692  
H126     H      0.831840000000     0.085300000000     0.450740000000     0.034828   
H127     H      0.767670000000     0.137180000000     0.458780000000     0.0347068  
H128     H      0.742830000000     0.111480000000     0.428700000000     0.0472474  
H129     H      0.604400000000     0.897380000000     0.219520000000     0.0474033  
H130     H      0.575160000000     0.870930000000     0.194550000000     0.0348733  
H131     H      0.567330000000     0.819280000000     0.258410000000     0.0345351  
H132     H      0.596750000000     0.845730000000     0.283280000000     0.0472239  
H133     H      0.595130000000     0.889140000000     0.302530000000     0.0474564  
H134     H      0.621120000000     0.918770000000     0.327480000000     0.034833   
H135     H      0.673930000000     0.926410000000     0.264180000000     0.0344596  
H136     H      0.647940000000     0.896620000000     0.239340000000     0.0472157  
H137     H      0.621810000000     0.078000000000     0.216970000000     0.0468371  
H138     H      0.591200000000     0.103050000000     0.192290000000     0.0305216  
H139     H      0.547380000000     0.118170000000     0.260470000000     0.0309377  
H140     H      0.576330000000     0.091290000000     0.285010000000     0.0469828  
H141     H      0.614600000000     0.084980000000     0.304300000000     0.0468543  
H142     H      0.640200000000     0.054910000000     0.329000000000     0.0305233  
H143     H      0.656110000000     0.011750000000     0.260780000000     0.0310748  
H144     H      0.628700000000     0.040140000000     0.236230000000     0.0470001  
H145     H      0.307130000000     0.066880000000     0.593170000000     0.0473799  
H146     H      0.332090000000     0.037130000000     0.618880000000     0.0348227  
H147     H      0.267430000000     0.027890000000     0.669960000000     0.0347364  
H148     H      0.242540000000     0.057910000000     0.644250000000     0.0472766  
H149     H      0.223300000000     0.057620000000     0.600860000000     0.0475348  
H150     H      0.198540000000     0.083790000000     0.571310000000     0.0348835  
H151     H      0.262620000000     0.135990000000     0.564790000000     0.034654   
H152     H      0.287270000000     0.109840000000     0.594590000000     0.0472364  
H153     H      0.223140000000     0.896340000000     0.599730000000     0.0475288  
H154     H      0.197900000000     0.870360000000     0.570410000000     0.0347031  
H155     H      0.262140000000     0.818620000000     0.561960000000     0.034635   
H156     H      0.287280000000     0.844600000000     0.591510000000     0.0473748  
H157     H      0.242950000000     0.894980000000     0.642820000000     0.0472995  
H158     H      0.267960000000     0.924420000000     0.668990000000     0.0347139  
H159     H      0.332030000000     0.917110000000     0.616860000000     0.0347786  
H160     H      0.306890000000     0.887870000000     0.590650000000     0.0474867  
H161     H      0.286770000000     0.844720000000     0.428870000000     0.0472232  
H162     H      0.261920000000     0.818780000000     0.458690000000     0.034658   
H163     H      0.197430000000     0.870230000000     0.450420000000     0.0347853  
H164     H      0.222380000000     0.896180000000     0.420810000000     0.0473442  
H165     H      0.242090000000     0.895000000000     0.377630000000     0.0472473  
H166     H      0.266920000000     0.924650000000     0.351470000000     0.0345498  
H167     H      0.331120000000     0.917430000000     0.403430000000     0.0347906  
H168     H      0.306200000000     0.888010000000     0.429600000000     0.0474714  
H169     H      0.094700000000     0.768410000000     0.421320000000     0.0474337  
H170     H      0.120690000000     0.793520000000     0.450780000000     0.0346935  
H171     H      0.173600000000     0.730350000000     0.458670000000     0.0346217  
H172     H      0.147630000000     0.705360000000     0.428990000000     0.0473346  
H173     H      0.095990000000     0.748880000000     0.378110000000     0.0472309  
H174     H      0.066280000000     0.723810000000     0.352160000000     0.0345832  
H175     H      0.074770000000     0.660330000000     0.404180000000     0.0347213  
H176     H      0.104240000000     0.685500000000     0.430140000000     0.0474641  
H177     H      0.095640000000     0.566590000000     0.219750000000     0.0474019  
H178     H      0.121810000000     0.537300000000     0.194670000000     0.0347704  
H179     H      0.174220000000     0.528990000000     0.258190000000     0.0346418  
H180     H      0.148060000000     0.558520000000     0.283190000000     0.0472983  
H181     H      0.104550000000     0.557550000000     0.302810000000     0.0474419  
H182     H      0.074880000000     0.583470000000     0.327800000000     0.0347368  
H183     H      0.066860000000     0.635540000000     0.264310000000     0.0346333  
H184     H      0.096740000000     0.609630000000     0.239430000000     0.0472693  
H185     H      0.933470000000     0.608540000000     0.238830000000     0.0473208  
H186     H      0.962910000000     0.634850000000     0.263850000000     0.0346546  
H187     H      0.954190000000     0.583430000000     0.327790000000     0.0347801  
H188     H      0.924990000000     0.557120000000     0.302680000000     0.0475337  
H189     H      0.934890000000     0.565140000000     0.219680000000     0.0475197  
H190     H      0.908990000000     0.535460000000     0.194720000000     0.0347924  
H191     H      0.855870000000     0.528110000000     0.257810000000     0.0347884  
H192     H      0.881730000000     0.558000000000     0.282630000000     0.0473365  
H193     H      0.933940000000     0.386100000000     0.220190000000     0.0474477  
H194     H      0.907970000000     0.415550000000     0.195130000000     0.0348143  
H195     H      0.855600000000     0.424220000000     0.258650000000     0.0346483  
H196     H      0.881570000000     0.394490000000     0.283640000000     0.0472564  
H197     H      0.924990000000     0.395410000000     0.303230000000     0.0474186  
H198     H      0.954900000000     0.369790000000     0.328210000000     0.0348239  
H199     H      0.963220000000     0.317600000000     0.264860000000     0.034785   
H200     H      0.933030000000     0.343200000000     0.239970000000     0.0472493  
H201     H      0.740260000000     0.413610000000     0.124960000000     0.0469238  
H202     H      0.764680000000     0.442200000000     0.152240000000     0.0310752  
H203     H      0.833850000000     0.399520000000     0.136820000000     0.0305574  
H204     H      0.809280000000     0.369250000000     0.111330000000     0.0468493  
H205     H      0.790040000000     0.362740000000     0.073300000000     0.0469147  
H206     H      0.765570000000     0.335750000000     0.044440000000     0.0308859  
H207     H      0.696530000000     0.350440000000     0.087610000000     0.0305368  
H208     H      0.721140000000     0.375610000000     0.118100000000     0.0468283  
H209     H      0.605390000000     0.185130000000     0.092360000000     0.0474221  
H210     H      0.575470000000     0.160290000000     0.118090000000     0.0347731  
H211     H      0.567140000000     0.223880000000     0.169990000000     0.0346746  
H212     H      0.597350000000     0.248630000000     0.144280000000     0.0472327  
H213     H      0.596390000000     0.268190000000     0.101300000000     0.0474124  
H214     H      0.622230000000     0.293090000000     0.071610000000     0.034781   
H215     H      0.674580000000     0.229560000000     0.063070000000     0.0346523  
H216     H      0.648750000000     0.204730000000     0.093060000000     0.047212   
H217     H      0.452960000000     0.090190000000     0.736400000000     0.0469626  
H218     H      0.481410000000     0.117660000000     0.760860000000     0.03098    
H219     H      0.437580000000     0.102350000000     0.828990000000     0.0306011  
H220     H      0.407440000000     0.076670000000     0.804370000000     0.0468742  
H221     H      0.401180000000     0.038580000000     0.785380000000     0.0469759  
H222     H      0.374180000000     0.009650000000     0.760980000000     0.0311137  
H223     H      0.389750000000     0.052470000000     0.692480000000     0.0306389  
H224     H      0.414910000000     0.083050000000     0.717000000000     0.0468127  
H225     H      0.595310000000     0.249120000000     0.879250000000     0.0473873  
H226     H      0.565700000000     0.224220000000     0.853060000000     0.0347284  
H227     H      0.573750000000     0.160530000000     0.904880000000     0.034818   
H228     H      0.603160000000     0.185550000000     0.931080000000     0.0475945  
H229     H      0.594250000000     0.268600000000     0.922510000000     0.04755    
H230     H      0.620660000000     0.293550000000     0.951750000000     0.0348047  
H231     H      0.673090000000     0.229960000000     0.959350000000     0.0348573  
H232     H      0.646700000000     0.205130000000     0.929910000000     0.047397   
H233     H      0.379720000000     0.205480000000     0.927820000000     0.047275   
H234     H      0.354080000000     0.230520000000     0.957780000000     0.0347435  
H235     H      0.406810000000     0.293730000000     0.949060000000     0.0348011  
H236     H      0.432460000000     0.268610000000     0.919370000000     0.047455   
H237     H      0.431310000000     0.248880000000     0.876420000000     0.0472451  
H238     H      0.461410000000     0.223900000000     0.850820000000     0.034712   
H239     H      0.452850000000     0.160590000000     0.903030000000     0.0348022  
H240     H      0.423030000000     0.185660000000     0.928640000000     0.0475315  
H241     H      0.933970000000     0.768560000000     0.420870000000     0.0474624  
H242     H      0.908030000000     0.793870000000     0.450200000000     0.0348412  
H243     H      0.855210000000     0.730710000000     0.458720000000     0.0346924  
H244     H      0.881140000000     0.705500000000     0.429170000000     0.0472691  
H245     H      0.924520000000     0.685610000000     0.430120000000     0.0474591  
H246     H      0.953960000000     0.660360000000     0.404190000000     0.0348135  
H247     H      0.962310000000     0.723640000000     0.351930000000     0.0347533  
H248     H      0.932650000000     0.748790000000     0.377840000000     0.0472684  
H249     H      0.806670000000     0.897580000000     0.421450000000     0.0474958  
H250     H      0.831710000000     0.871250000000     0.450610000000     0.0347214  
H251     H      0.767050000000     0.819980000000     0.458820000000     0.034623   
H252     H      0.742110000000     0.846300000000     0.429420000000     0.0473256  
H253     H      0.786820000000     0.896680000000     0.378400000000     0.0473273  
H254     H      0.762040000000     0.926510000000     0.352460000000     0.0347193  
H255     H      0.697950000000     0.919320000000     0.404590000000     0.0347108  
H256     H      0.722870000000     0.889700000000     0.430570000000     0.0475061  
H257     H      0.924460000000     0.685720000000     0.590460000000     0.0475131  
H258     H      0.953880000000     0.660540000000     0.616470000000     0.0347797  
H259     H      0.961880000000     0.723840000000     0.668790000000     0.0347134  
H260     H      0.932250000000     0.748900000000     0.642800000000     0.0473833  
H261     H      0.880990000000     0.705550000000     0.591430000000     0.0473596  
H262     H      0.855140000000     0.730710000000     0.561780000000     0.034575   
H263     H      0.908010000000     0.793850000000     0.570280000000     0.0347122  
H264     H      0.933860000000     0.768590000000     0.599690000000     0.0475912  
H265     H      0.147420000000     0.705120000000     0.591830000000     0.0472633  
H266     H      0.173460000000     0.730140000000     0.562220000000     0.0346713  
H267     H      0.120920000000     0.793540000000     0.570580000000     0.0347602  
H268     H      0.094870000000     0.768420000000     0.599960000000     0.0474114  
H269     H      0.095990000000     0.748760000000     0.643010000000     0.0472477  
H270     H      0.066190000000     0.723790000000     0.668950000000     0.0346179  
H271     H      0.074460000000     0.660300000000     0.616920000000     0.03476    
H272     H      0.104030000000     0.685380000000     0.590960000000     0.047411   
H273     H      0.146790000000     0.559020000000     0.739020000000     0.0473213  
H274     H      0.172950000000     0.529640000000     0.764140000000     0.0347598  
H275     H      0.119960000000     0.537390000000     0.827290000000     0.0347237  
H276     H      0.093780000000     0.566570000000     0.802040000000     0.0474937  
H277     H      0.103420000000     0.557690000000     0.719110000000     0.0475214  
H278     H      0.074070000000     0.583650000000     0.693800000000     0.0346773  
H279     H      0.065430000000     0.635720000000     0.757230000000     0.0345964  
H280     H      0.094990000000     0.609770000000     0.782430000000     0.0473294  
H281     H      0.722980000000     0.888670000000     0.591540000000     0.0474011  
H282     H      0.698070000000     0.918020000000     0.617800000000     0.0347707  
H283     H      0.762670000000     0.925920000000     0.669190000000     0.0345991  
H284     H      0.787480000000     0.896330000000     0.642950000000     0.0472515  
H285     H      0.806890000000     0.897250000000     0.599720000000     0.0474083  
H286     H      0.831760000000     0.871220000000     0.570130000000     0.0348029  
H287     H      0.767360000000     0.819560000000     0.562430000000     0.034723   
H288     H      0.742600000000     0.845570000000     0.592260000000     0.0472129  
H289     H      0.596100000000     0.067390000000     0.720220000000     0.0474661  
H290     H      0.622170000000     0.038140000000     0.694980000000     0.0348095  
H291     H      0.673970000000     0.028520000000     0.758820000000     0.0346591  
H292     H      0.647880000000     0.058000000000     0.783990000000     0.0473024  
H293     H      0.604020000000     0.057340000000     0.803200000000     0.0476002  
H294     H      0.574330000000     0.083370000000     0.828100000000     0.0348958  
H295     H      0.567930000000     0.136270000000     0.765110000000     0.034628   
H296     H      0.597780000000     0.110260000000     0.740340000000     0.047245   
H297     H      0.807100000000     0.057930000000     0.599880000000     0.0475254  
H298     H      0.832070000000     0.084040000000     0.570410000000     0.0348346  
H299     H      0.767860000000     0.135990000000     0.563070000000     0.0347612  
H300     H      0.743020000000     0.109910000000     0.592740000000     0.0473299  
H301     H      0.787690000000     0.058870000000     0.643190000000     0.0473382  
H302     H      0.762740000000     0.029350000000     0.669370000000     0.0347345  
H303     H      0.698200000000     0.037560000000     0.617950000000     0.0347998  
H304     H      0.723260000000     0.066840000000     0.591750000000     0.0475274  
H305     H      0.597710000000     0.845050000000     0.739940000000     0.0473554  
H306     H      0.568140000000     0.818870000000     0.764870000000     0.0347305  
H307     H      0.575500000000     0.871200000000     0.828240000000     0.0347963  
H308     H      0.604890000000     0.897410000000     0.803180000000     0.0474894  
H309     H      0.595990000000     0.888130000000     0.720230000000     0.0475453  
H310     H      0.621910000000     0.917540000000     0.695020000000     0.0347323  
H311     H      0.674430000000     0.926300000000     0.758410000000     0.0345746  
H312     H      0.648500000000     0.896670000000     0.783530000000     0.0473553  
H313     H      0.424740000000     0.894780000000     0.802130000000     0.0473097  
H314     H      0.454180000000     0.869020000000     0.827490000000     0.0347108  
H315     H      0.464870000000     0.818040000000     0.763500000000     0.0346325  
H316     H      0.435160000000     0.843820000000     0.738190000000     0.0472893  
H317     H      0.435760000000     0.887380000000     0.719200000000     0.0475586  
H318     H      0.409710000000     0.916930000000     0.694230000000     0.0348664  
H319     H      0.355770000000     0.922860000000     0.756770000000     0.0345749  
H320     H      0.381790000000     0.893130000000     0.781590000000     0.0472349  
H321     H      0.453180000000     0.703060000000     0.897530000000     0.0469158  
H322     H      0.482060000000     0.727380000000     0.870390000000     0.0311312  
H323     H      0.438800000000     0.795830000000     0.885790000000     0.0306373  
H324     H      0.408240000000     0.771370000000     0.911120000000     0.0467952  
H325     H      0.401380000000     0.752210000000     0.949020000000     0.0469042  
H326     H      0.374070000000     0.727850000000     0.977700000000     0.0311997  
H327     H      0.389460000000     0.659460000000     0.934650000000     0.0306865  
H328     H      0.414940000000     0.683950000000     0.904320000000     0.0467625  
H329     H      0.648860000000     0.750750000000     0.931810000000     0.0473444  
H330     H      0.674800000000     0.725510000000     0.961390000000     0.0346049  
H331     H      0.623410000000     0.661500000000     0.950810000000     0.0347348  
H332     H      0.597510000000     0.686780000000     0.921490000000     0.0474406  
H333     H      0.599520000000     0.707060000000     0.878790000000     0.0472031  
H334     H      0.569640000000     0.731670000000     0.852680000000     0.0346779  
H335     H      0.575120000000     0.794480000000     0.905900000000     0.0349508  
H336     H      0.604830000000     0.769710000000     0.932060000000     0.0475895  
H337     H      0.787790000000     0.608280000000     0.092840000000     0.0472359  
H338     H      0.762990000000     0.634770000000     0.063480000000     0.0345007  
H339     H      0.698430000000     0.583240000000     0.070760000000     0.0348134  
H340     H      0.723340000000     0.556750000000     0.099940000000     0.0474715  
H341     H      0.742930000000     0.557520000000     0.143280000000     0.0472197  
H342     H      0.767750000000     0.527840000000     0.169390000000     0.0345427  
H343     H      0.832100000000     0.535390000000     0.117650000000     0.0348673  
H344     H      0.807180000000     0.564880000000     0.091520000000     0.0474509  
H345     H      0.595890000000     0.685840000000     0.100890000000     0.0474763  
H346     H      0.622040000000     0.660740000000     0.071560000000     0.034793   
H347     H      0.674670000000     0.724130000000     0.063510000000     0.0347033  
H348     H      0.648530000000     0.749120000000     0.093040000000     0.04731    
H349     H      0.597170000000     0.705430000000     0.144060000000     0.0473284  
H350     H      0.567530000000     0.730390000000     0.170150000000     0.0347867  
H351     H      0.575590000000     0.793930000000     0.118160000000     0.0347776  
H352     H      0.605030000000     0.768860000000     0.092040000000     0.0474345  
H353     H      0.932700000000     0.567400000000     0.801370000000     0.0474905  
H354     H      0.906910000000     0.537950000000     0.826620000000     0.0347708  
H355     H      0.854590000000     0.528590000000     0.763160000000     0.0346725  
H356     H      0.880390000000     0.558320000000     0.737980000000     0.0472777  
H357     H      0.923910000000     0.557730000000     0.718380000000     0.0474722  
H358     H      0.953550000000     0.583650000000     0.693340000000     0.0348751  
H359     H      0.961080000000     0.636140000000     0.756550000000     0.0347808  
H360     H      0.931210000000     0.610260000000     0.781470000000     0.0472017  
H361     H      0.808850000000     0.584080000000     0.910290000000     0.0468056  
H362     H      0.833160000000     0.553680000000     0.884760000000     0.0306466  
H363     H      0.763850000000     0.510920000000     0.870170000000     0.031014   
H364     H      0.739680000000     0.539680000000     0.897510000000     0.0468906  
H365     H      0.720580000000     0.577640000000     0.904590000000     0.0467507  
H366     H      0.696360000000     0.603060000000     0.935170000000     0.0307046  
H367     H      0.765940000000     0.618140000000     0.977330000000     0.0312242  
H368     H      0.790030000000     0.590920000000     0.948410000000     0.0469305  
H369     H      0.742500000000     0.395360000000     0.878780000000     0.0473222  
H370     H      0.767320000000     0.424960000000     0.852590000000     0.0345739  
H371     H      0.831570000000     0.417770000000     0.904510000000     0.0348785  
H372     H      0.806630000000     0.388330000000     0.930710000000     0.0475201  
H373     H      0.787160000000     0.344880000000     0.929600000000     0.0472967  
H374     H      0.762230000000     0.318590000000     0.959060000000     0.0346027  
H375     H      0.697810000000     0.370210000000     0.951370000000     0.0349158  
H376     H      0.722840000000     0.396490000000     0.922090000000     0.0475505  
H377     H      0.882600000000     0.396430000000     0.738810000000     0.0472983  
H378     H      0.856180000000     0.425810000000     0.763700000000     0.0347449  
H379     H      0.908370000000     0.417790000000     0.827450000000     0.0348838  
H380     H      0.934800000000     0.388620000000     0.802460000000     0.0475221  
H381     H      0.926200000000     0.397410000000     0.719330000000     0.047484   
H382     H      0.955770000000     0.371260000000     0.694420000000     0.0348322  
H383     H      0.963510000000     0.319380000000     0.758110000000     0.0348913  
H384     H      0.933750000000     0.345510000000     0.782890000000     0.0473484  
Ni1      Ni     0.856380000000     0.477600000000     0.852520000000     0.9973     
Ni2      Ni     0.823680000000     0.476860000000     0.820540000000     0.990988   
Ni3      Ni     0.706470000000     0.667410000000     0.012030000000     0.990207   
Ni4      Ni     0.673610000000     0.635570000000     0.011340000000     0.996771   
Ni5      Ni     0.516300000000     0.786920000000     0.821310000000     0.992172   
Ni6      Ni     0.515390000000     0.819300000000     0.853340000000     0.99645    
Ni7      Ni     0.705830000000     0.977680000000     0.701290000000     0.98968    
Ni8      Ni     0.673040000000     0.977730000000     0.669400000000     0.998235   
Ni9      Ni     0.013920000000     0.634960000000     0.668020000000     0.9968     
Ni10     Ni     0.013840000000     0.667170000000     0.700210000000     0.991233   
Ni11     Ni     0.856810000000     0.819680000000     0.510300000000     0.99838    
Ni12     Ni     0.823990000000     0.787830000000     0.510290000000     0.991205   
Ni13     Ni     0.514610000000     0.167300000000     0.820590000000     0.992613   
Ni14     Ni     0.513910000000     0.135170000000     0.852880000000     0.997293   
Ni15     Ni     0.705500000000     0.286430000000     0.010640000000     0.990882   
Ni16     Ni     0.672970000000     0.318580000000     0.011380000000     0.997033   
Ni17     Ni     0.824410000000     0.476150000000     0.201470000000     0.992344   
Ni18     Ni     0.857080000000     0.475590000000     0.169440000000     0.997386   
Ni19     Ni     0.014440000000     0.666860000000     0.320750000000     0.990508   
Ni20     Ni     0.014440000000     0.634770000000     0.353060000000     0.99725    
Ni21     Ni     0.204930000000     0.787030000000     0.510490000000     0.991231   
Ni22     Ni     0.172330000000     0.819090000000     0.510570000000     0.997896   
Ni23     Ni     0.324770000000     0.975800000000     0.701130000000     0.991532   
Ni24     Ni     0.357340000000     0.976480000000     0.669000000000     0.996446   
Ni25     Ni     0.672830000000     0.978870000000     0.352640000000     0.997026   
Ni26     Ni     0.705490000000     0.978330000000     0.320590000000     0.992047   
Ni27     Ni     0.515040000000     0.818990000000     0.169620000000     0.997231   
Ni28     Ni     0.515660000000     0.786920000000     0.201960000000     0.990999   
Ni29     Ni     0.172270000000     0.478110000000     0.853070000000     0.99682    
Ni30     Ni     0.205000000000     0.478720000000     0.821100000000     0.99268    
Ni31     Ni     0.357080000000     0.635860000000     0.010670000000     0.99616    
Ni32     Ni     0.324620000000     0.668080000000     0.011580000000     0.991147   
Ni33     Ni     0.205970000000     0.477500000000     0.201220000000     0.990466   
Ni34     Ni     0.173300000000     0.477370000000     0.169210000000     0.998743   
Ni35     Ni     0.356610000000     0.319310000000     0.009770000000     0.996761   
Ni36     Ni     0.323800000000     0.287430000000     0.010430000000     0.991538   
Ni37     Ni     0.514560000000     0.135140000000     0.168440000000     0.997526   
Ni38     Ni     0.513860000000     0.167430000000     0.200570000000     0.992836   
Ni39     Ni     0.015890000000     0.319310000000     0.669370000000     0.995897   
Ni40     Ni     0.015260000000     0.287190000000     0.701670000000     0.990684   
Ni41     Ni     0.857210000000     0.136000000000     0.510870000000     0.99737    
Ni42     Ni     0.824590000000     0.168070000000     0.511440000000     0.992225   
Ni43     Ni     0.206590000000     0.167400000000     0.511810000000     0.991754   
Ni44     Ni     0.173710000000     0.135560000000     0.511690000000     0.996686   
Ni45     Ni     0.356130000000     0.977190000000     0.351870000000     0.996208   
Ni46     Ni     0.323350000000     0.977080000000     0.319920000000     0.990721   
Ni47     Ni     0.016260000000     0.287090000000     0.321510000000     0.992146   
Ni48     Ni     0.015660000000     0.319350000000     0.353680000000     0.995685   
O1       O      0.873400000000     0.503260000000     0.832760000000    -0.439423   
O2       O      0.837160000000     0.451860000000     0.870210000000    -0.438367   
O3       O      0.873840000000     0.451690000000     0.833410000000    -0.438658   
O4       O      0.836860000000     0.503580000000     0.869460000000    -0.437983   
O5       O      0.805830000000     0.502250000000     0.840050000000    -0.436886   
O6       O      0.843640000000     0.451410000000     0.803210000000    -0.437128   
O7       O      0.806890000000     0.450830000000     0.840110000000    -0.437701   
O8       O      0.842690000000     0.502990000000     0.803080000000    -0.436689   
O9       O      0.686760000000     0.684690000000     0.037690000000    -0.437496   
O10      O      0.724060000000     0.647950000000     0.986420000000    -0.436705   
O11      O      0.687350000000     0.685080000000     0.986100000000    -0.436157   
O12      O      0.723340000000     0.647620000000     0.037860000000    -0.437419   
O13      O      0.692890000000     0.617690000000     0.036890000000    -0.43837    
O14      O      0.656540000000     0.655500000000     0.985860000000    -0.439195   
O15      O      0.692910000000     0.618660000000     0.985170000000    -0.437405   
O16      O      0.656400000000     0.654660000000     0.037450000000    -0.438528   
O17      O      0.541960000000     0.806770000000     0.804100000000    -0.438168   
O18      O      0.490690000000     0.769130000000     0.840720000000    -0.437331   
O19      O      0.489960000000     0.805740000000     0.803790000000    -0.436636   
O20      O      0.542560000000     0.770330000000     0.840920000000    -0.437764   
O21      O      0.541380000000     0.800300000000     0.871070000000    -0.437999   
O22      O      0.489530000000     0.836130000000     0.833540000000    -0.439264   
O23      O      0.489200000000     0.799830000000     0.870190000000    -0.437962   
O24      O      0.541550000000     0.836690000000     0.834300000000    -0.438751   
O25      O      0.686430000000     0.951880000000     0.718700000000    -0.437467   
O26      O      0.723040000000     0.003500000000     0.681750000000    -0.437115   
O27      O      0.686400000000     0.003430000000     0.718800000000    -0.436755   
O28      O      0.723040000000     0.951920000000     0.681640000000    -0.437237   
O29      O      0.692350000000     0.951960000000     0.651950000000    -0.439227   
O30      O      0.655880000000     0.003500000000     0.688940000000    -0.439022   
O31      O      0.692370000000     0.003540000000     0.652030000000    -0.439046   
O32      O      0.655870000000     0.951920000000     0.688860000000    -0.439411   
O33      O      0.987770000000     0.617800000000     0.687250000000    -0.438503   
O34      O      0.040050000000     0.654230000000     0.650900000000    -0.438938   
O35      O      0.039810000000     0.617710000000     0.687490000000    -0.439164   
O36      O      0.988010000000     0.654320000000     0.650690000000    -0.43881    
O37      O      0.987960000000     0.684450000000     0.680700000000    -0.437768   
O38      O      0.039710000000     0.647750000000     0.717590000000    -0.438075   
O39      O      0.039970000000     0.684380000000     0.680880000000    -0.437246   
O40      O      0.987710000000     0.647820000000     0.717360000000    -0.437054   
O41      O      0.873940000000     0.800190000000     0.484450000000    -0.438842   
O42      O      0.837530000000     0.837070000000     0.536150000000    -0.439029   
O43      O      0.873960000000     0.800140000000     0.536060000000    -0.439797   
O44      O      0.837490000000     0.837120000000     0.484550000000    -0.439633   
O45      O      0.806770000000     0.807450000000     0.484550000000    -0.43772    
O46      O      0.843380000000     0.770340000000     0.536030000000    -0.438069   
O47      O      0.806820000000     0.807390000000     0.536130000000    -0.437318   
O48      O      0.843350000000     0.770380000000     0.484450000000    -0.437133   
O49      O      0.489290000000     0.147660000000     0.802640000000    -0.437598   
O50      O      0.539990000000     0.184730000000     0.840600000000    -0.438117   
O51      O      0.541130000000     0.148020000000     0.804030000000    -0.438002   
O52      O      0.487980000000     0.184440000000     0.839340000000    -0.436867   
O53      O      0.487770000000     0.154650000000     0.869680000000    -0.439427   
O54      O      0.540130000000     0.117780000000     0.833900000000    -0.438289   
O55      O      0.539800000000     0.154420000000     0.870420000000    -0.438703   
O56      O      0.487980000000     0.118120000000     0.833280000000    -0.438244   
O57      O      0.685450000000     0.269220000000     0.985210000000    -0.437621   
O58      O      0.723470000000     0.305810000000     0.036010000000    -0.437475   
O59      O      0.686390000000     0.269100000000     0.036810000000    -0.436412   
O60      O      0.722400000000     0.305920000000     0.984590000000    -0.437045   
O61      O      0.692260000000     0.336150000000     0.985630000000    -0.438177   
O62      O      0.655860000000     0.298960000000     0.037080000000    -0.439428   
O63      O      0.692610000000     0.335410000000     0.037340000000    -0.438079   
O64      O      0.655400000000     0.299540000000     0.985480000000    -0.438531   
O65      O      0.844210000000     0.501710000000     0.218750000000    -0.438109   
O66      O      0.806680000000     0.450680000000     0.182010000000    -0.437802   
O67      O      0.843610000000     0.450110000000     0.218890000000    -0.436594   
O68      O      0.807450000000     0.502090000000     0.181920000000    -0.437793   
O69      O      0.837720000000     0.501250000000     0.151810000000    -0.438622   
O70      O      0.874250000000     0.450000000000     0.189140000000    -0.439559   
O71      O      0.837650000000     0.449540000000     0.152520000000    -0.438282   
O72      O      0.874420000000     0.501600000000     0.188560000000    -0.438608   
O73      O      0.988520000000     0.647330000000     0.303500000000    -0.437395   
O74      O      0.040370000000     0.684240000000     0.340150000000    -0.437656   
O75      O      0.040530000000     0.647460000000     0.303610000000    -0.437466   
O76      O      0.988360000000     0.684130000000     0.340060000000    -0.436944   
O77      O      0.988350000000     0.654120000000     0.370180000000    -0.438348   
O78      O      0.040540000000     0.617540000000     0.333820000000    -0.43875    
O79      O      0.040390000000     0.654200000000     0.370250000000    -0.439411   
O80      O      0.988510000000     0.617450000000     0.333750000000    -0.439175   
O81      O      0.185390000000     0.769720000000     0.484730000000    -0.438019   
O82      O      0.222310000000     0.806470000000     0.536250000000    -0.437895   
O83      O      0.185460000000     0.769670000000     0.536320000000    -0.437088   
O84      O      0.222220000000     0.806520000000     0.484670000000    -0.4371     
O85      O      0.191700000000     0.836390000000     0.484720000000    -0.438922   
O86      O      0.155100000000     0.799690000000     0.536410000000    -0.439062   
O87      O      0.191830000000     0.836370000000     0.536330000000    -0.439331   
O88      O      0.155000000000     0.799710000000     0.484800000000    -0.439437   
O89      O      0.344340000000     0.001090000000     0.719050000000    -0.437102   
O90      O      0.307420000000     0.950460000000     0.681160000000    -0.438377   
O91      O      0.344250000000     0.949660000000     0.717910000000    -0.437747   
O92      O      0.307450000000     0.002040000000     0.682140000000    -0.436178   
O93      O      0.337690000000     0.002240000000     0.651980000000    -0.438939   
O94      O      0.374890000000     0.950630000000     0.688170000000    -0.438234   
O95      O      0.338120000000     0.950650000000     0.651480000000    -0.43883    
O96      O      0.374320000000     0.002360000000     0.688570000000    -0.437834   
O97      O      0.655350000000     0.953100000000     0.333310000000    -0.438541   
O98      O      0.692420000000     0.004570000000     0.369810000000    -0.439222   
O99      O      0.655900000000     0.004810000000     0.333110000000    -0.437933   
O100     O      0.692000000000     0.952980000000     0.370100000000    -0.438951   
O101     O      0.722770000000     0.952890000000     0.340480000000    -0.438445   
O102     O      0.685970000000     0.003670000000     0.302720000000    -0.437573   
O103     O      0.722750000000     0.004490000000     0.339740000000    -0.436278   
O104     O      0.686050000000     0.952270000000     0.303630000000    -0.437742   
O105     O      0.540850000000     0.836670000000     0.188860000000    -0.43852    
O106     O      0.489310000000     0.799250000000     0.152540000000    -0.439581   
O107     O      0.488700000000     0.835830000000     0.188910000000    -0.437805   
O108     O      0.541320000000     0.799960000000     0.152400000000    -0.438487   
O109     O      0.541500000000     0.769730000000     0.182300000000    -0.437589   
O110     O      0.489890000000     0.806300000000     0.219560000000    -0.437266   
O111     O      0.489490000000     0.769430000000     0.182860000000    -0.436371   
O112     O      0.541750000000     0.806530000000     0.218850000000    -0.437405   
O113     O      0.155370000000     0.452210000000     0.833520000000    -0.439269   
O114     O      0.191370000000     0.504080000000     0.870560000000    -0.438129   
O115     O      0.154740000000     0.503810000000     0.833720000000    -0.438692   
O116     O      0.191890000000     0.452350000000     0.870210000000    -0.438353   
O117     O      0.222930000000     0.453580000000     0.840810000000    -0.437911   
O118     O      0.184980000000     0.503920000000     0.803560000000    -0.438228   
O119     O      0.221650000000     0.505000000000     0.840450000000    -0.437795   
O120     O      0.186110000000     0.452330000000     0.803870000000    -0.43655    
O121     O      0.374840000000     0.654920000000     0.036470000000    -0.438218   
O122     O      0.337200000000     0.618950000000     0.984990000000    -0.438913   
O123     O      0.373990000000     0.655420000000     0.984720000000    -0.437552   
O124     O      0.337970000000     0.618360000000     0.036580000000    -0.438599   
O125     O      0.307350000000     0.648130000000     0.037010000000    -0.437863   
O126     O      0.344130000000     0.685990000000     0.986210000000    -0.436867   
O127     O      0.307070000000     0.649200000000     0.985430000000    -0.43649    
O128     O      0.344300000000     0.684740000000     0.037660000000    -0.437665   
O129     O      0.186570000000     0.451690000000     0.218630000000    -0.437607   
O130     O      0.223190000000     0.503300000000     0.181670000000    -0.437592   
O131     O      0.186420000000     0.503260000000     0.218580000000    -0.436979   
O132     O      0.223330000000     0.451740000000     0.181710000000    -0.437141   
O133     O      0.192740000000     0.451600000000     0.151910000000    -0.439249   
O134     O      0.155990000000     0.503160000000     0.188610000000    -0.439074   
O135     O      0.192620000000     0.503180000000     0.151840000000    -0.439416   
O136     O      0.156120000000     0.451580000000     0.188690000000    -0.439561   
O137     O      0.373410000000     0.299720000000     0.983840000000    -0.439037   
O138     O      0.337610000000     0.336840000000     0.035760000000    -0.438391   
O139     O      0.374130000000     0.299930000000     0.035440000000    -0.43889    
O140     O      0.336990000000     0.336510000000     0.984040000000    -0.437925   
O141     O      0.305870000000     0.307190000000     0.985310000000    -0.437278   
O142     O      0.343810000000     0.269850000000     0.035610000000    -0.438107   
O143     O      0.307230000000     0.306840000000     0.036730000000    -0.437664   
O144     O      0.342600000000     0.270140000000     0.984030000000    -0.43633    
O145     O      0.488400000000     0.117790000000     0.187530000000    -0.438477   
O146     O      0.540660000000     0.154550000000     0.151510000000    -0.439453   
O147     O      0.540560000000     0.118250000000     0.188100000000    -0.438243   
O148     O      0.488630000000     0.154250000000     0.150830000000    -0.439008   
O149     O      0.488410000000     0.184690000000     0.180520000000    -0.43836    
O150     O      0.539240000000     0.147970000000     0.218570000000    -0.438051   
O151     O      0.540430000000     0.184520000000     0.181670000000    -0.436889   
O152     O      0.487400000000     0.148160000000     0.217270000000    -0.437743   
O153     O      0.041830000000     0.336390000000     0.688860000000    -0.439342   
O154     O      0.989880000000     0.300070000000     0.651960000000    -0.437843   
O155     O      0.989790000000     0.336780000000     0.688430000000    -0.43793    
O156     O      0.042030000000     0.299770000000     0.652530000000    -0.437654   
O157     O      0.040810000000     0.269310000000     0.682270000000    -0.437042   
O158     O      0.989630000000     0.307100000000     0.718870000000    -0.43742    
O159     O      0.988970000000     0.270310000000     0.682330000000    -0.436944   
O160     O      0.041670000000     0.306250000000     0.718860000000    -0.43631    
O161     O      0.874720000000     0.155290000000     0.536670000000    -0.438274   
O162     O      0.837600000000     0.118870000000     0.485140000000    -0.439354   
O163     O      0.874170000000     0.155520000000     0.484940000000    -0.438219   
O164     O      0.838020000000     0.118530000000     0.536750000000    -0.438911   
O165     O      0.807270000000     0.148150000000     0.536860000000    -0.438037   
O166     O      0.844150000000     0.185940000000     0.486100000000    -0.43767    
O167     O      0.807330000000     0.148980000000     0.485240000000    -0.436727   
O168     O      0.844040000000     0.184980000000     0.537520000000    -0.437786   
O169     O      0.186730000000     0.185330000000     0.536880000000    -0.437325   
O170     O      0.224280000000     0.147380000000     0.486720000000    -0.437149   
O171     O      0.187640000000     0.184530000000     0.485440000000    -0.43693    
O172     O      0.223280000000     0.148130000000     0.538190000000    -0.436956   
O173     O      0.193080000000     0.117950000000     0.537300000000    -0.438942   
O174     O      0.156500000000     0.155300000000     0.486100000000    -0.438876   
O175     O      0.192860000000     0.118370000000     0.485570000000    -0.437499   
O176     O      0.156730000000     0.154870000000     0.537810000000    -0.437387   
O177     O      0.373420000000     0.002760000000     0.332180000000    -0.438398   
O178     O      0.336660000000     0.951610000000     0.369440000000    -0.438732   
O179     O      0.373140000000     0.951050000000     0.332630000000    -0.437615   
O180     O      0.336940000000     0.003310000000     0.369000000000    -0.437262   
O181     O      0.305610000000     0.002180000000     0.339900000000    -0.436719   
O182     O      0.343260000000     0.951990000000     0.302060000000    -0.437017   
O183     O      0.306560000000     0.950740000000     0.339150000000    -0.437018   
O184     O      0.342370000000     0.003430000000     0.302840000000    -0.436427   
O185     O      0.041820000000     0.306950000000     0.304190000000    -0.438355   
O186     O      0.990770000000     0.269270000000     0.341040000000    -0.437238   
O187     O      0.989790000000     0.306010000000     0.304310000000    -0.436525   
O188     O      0.042630000000     0.270360000000     0.340860000000    -0.437812   
O189     O      0.041730000000     0.300210000000     0.371130000000    -0.43812    
O190     O      0.989660000000     0.336300000000     0.334150000000    -0.438842   
O191     O      0.989560000000     0.299870000000     0.370640000000    -0.43756    
O192     O      0.041710000000     0.336760000000     0.334510000000    -0.438607   


