data_structure

_audit_creation_method RASPA-1.0
_audit_creation_date 2023-5-22
_audit_author_name 'Poobodin Mano'

_cell_length_a    45.5631
_cell_length_b    45.5616
_cell_length_c    30.4117
_cell_angle_alpha 90
_cell_angle_beta  90
_cell_angle_gamma 90
_cell_volume      63132.5

_symmetry_cell_setting          triclinic
_symmetry_space_group_name_Hall 'P 1'
_symmetry_space_group_name_H-M  'P 1'
_symmetry_Int_Tables_number     1

_symmetry_equiv_pos_as_xyz 'x,y,z'

loop_
_atom_site_label
_atom_site_type_symbol
_atom_site_fract_x
_atom_site_fract_y
_atom_site_fract_z
_atom_site_charge
C1       C      0.262700000000     0.986880000000     0.986030000000     0.38413    
C2       C      0.374540000000     0.986890000000     0.986080000000     0.384267   
C3       C      0.318670000000     0.987150000000     0.902270000000     0.38416    
C4       C      0.318650000000     0.986620000000     0.069830000000     0.384528   
C5       C      0.265280000000     0.986880000000     0.486040000000     0.384523   
C6       C      0.377100000000     0.986890000000     0.486070000000     0.384246   
C7       C      0.321120000000     0.986920000000     0.402270000000     0.384308   
C8       C      0.321100000000     0.986860000000     0.569830000000     0.384507   
C9       C      0.987170000000     0.653830000000     0.902060000000     0.38449    
C10      C      0.986890000000     0.653490000000     0.069610000000     0.384152   
C11      C      0.987890000000     0.597750000000     0.985530000000     0.38436    
C12      C      0.986210000000     0.709570000000     0.986160000000     0.384575   
C13      C      0.986740000000     0.653440000000     0.402060000000     0.384203   
C14      C      0.986480000000     0.653870000000     0.569610000000     0.384446   
C15      C      0.985740000000     0.597750000000     0.486240000000     0.384652   
C16      C      0.987430000000     0.709570000000     0.485440000000     0.384378   
C17      C      0.652440000000     0.986820000000     0.902660000000     0.384286   
C18      C      0.652420000000     0.986880000000     0.070220000000     0.384576   
C19      C      0.708260000000     0.986840000000     0.986440000000     0.384523   
C20      C      0.596440000000     0.986870000000     0.986420000000     0.384573   
C21      C      0.654890000000     0.986590000000     0.402660000000     0.384266   
C22      C      0.654870000000     0.987120000000     0.570210000000     0.384299   
C23      C      0.710840000000     0.986840000000     0.486450000000     0.384458   
C24      C      0.599000000000     0.986870000000     0.486410000000     0.384385   
C25      C      0.041350000000     0.986820000000     0.986160000000     0.385285   
C26      C      0.929540000000     0.986790000000     0.986260000000     0.385905   
C27      C      0.985370000000     0.042720000000     0.986010000000     0.385394   
C28      C      0.985400000000     0.930900000000     0.986410000000     0.385697   
C29      C      0.044010000000     0.986820000000     0.486180000000     0.385563   
C30      C      0.932190000000     0.986790000000     0.486280000000     0.385592   
C31      C      0.988150000000     0.042710000000     0.486650000000     0.385341   
C32      C      0.988170000000     0.930890000000     0.485810000000     0.385583   
C33      C      0.986850000000     0.320130000000     0.902870000000     0.384456   
C34      C      0.987130000000     0.319770000000     0.070420000000     0.38422    
C35      C      0.987870000000     0.375860000000     0.986960000000     0.384638   
C36      C      0.986170000000     0.264040000000     0.986310000000     0.384324   
C37      C      0.986450000000     0.319730000000     0.402870000000     0.384158   
C38      C      0.986710000000     0.320160000000     0.570420000000     0.384513   
C39      C      0.985720000000     0.375860000000     0.486240000000     0.384286   
C40      C      0.987390000000     0.264030000000     0.487040000000     0.384277   
C41      C      0.961510000000     0.312060000000     0.688540000000    -0.0681689  
C42      C      0.986770000000     0.320320000000     0.712140000000     0.0220106  
C43      C      0.012020000000     0.328530000000     0.688470000000    -0.0660713  
C44      C      0.012070000000     0.328290000000     0.642520000000     0.0306344  
C45      C      0.986760000000     0.320220000000     0.619080000000    -0.116539   
C46      C      0.961450000000     0.312200000000     0.642590000000     0.0285919  
C47      C      0.986780000000     0.320310000000     0.761150000000     0.0220459  
C48      C      0.961530000000     0.328520000000     0.784830000000    -0.0680407  
C49      C      0.961480000000     0.328270000000     0.830780000000     0.0287188  
C50      C      0.986790000000     0.320190000000     0.854210000000    -0.116565   
C51      C      0.012090000000     0.312160000000     0.830690000000     0.0305138  
C52      C      0.012030000000     0.312030000000     0.784740000000    -0.0662832  
C53      C      0.961410000000     0.311350000000     0.284670000000    -0.0679846  
C54      C      0.986730000000     0.319560000000     0.261150000000     0.0219976  
C55      C      0.011910000000     0.327840000000     0.284900000000    -0.0661757  
C56      C      0.011840000000     0.327720000000     0.330840000000     0.0304965  
C57      C      0.986480000000     0.319690000000     0.354210000000    -0.116431   
C58      C      0.961230000000     0.311610000000     0.330640000000     0.0285534  
C59      C      0.986860000000     0.319580000000     0.212140000000     0.0219746  
C60      C      0.012180000000     0.311370000000     0.188610000000    -0.065996   
C61      C      0.012360000000     0.311640000000     0.142650000000     0.0304307  
C62      C      0.987110000000     0.319740000000     0.119080000000    -0.116379   
C63      C      0.961750000000     0.327760000000     0.142460000000     0.0285722  
C64      C      0.961680000000     0.327870000000     0.188400000000    -0.0681006  
C65      C      0.963150000000     0.185040000000     0.500880000000    -0.0682486  
C66      C      0.988280000000     0.169630000000     0.487470000000     0.0211211  
C67      C      0.013190000000     0.185420000000     0.474040000000    -0.0661053  
C68      C      0.013040000000     0.216110000000     0.474320000000     0.0304239  
C69      C      0.987780000000     0.231570000000     0.487320000000    -0.116448   
C70      C      0.962810000000     0.215710000000     0.500460000000     0.0285936  
C71      C      0.988450000000     0.137120000000     0.487360000000     0.0250077  
C72      C      0.978920000000     0.121420000000     0.524440000000    -0.0691785  
C73      C      0.979060000000     0.090740000000     0.524360000000     0.0284058  
C74      C      0.988280000000     0.075180000000     0.486910000000    -0.114028   
C75      C      0.997630000000     0.090940000000     0.449710000000     0.0265822  
C76      C      0.997940000000     0.121610000000     0.450080000000    -0.071111   
C77      C      0.994590000000     0.121490000000     0.948540000000    -0.0711322  
C78      C      0.985070000000     0.137130000000     0.985690000000     0.0249997  
C79      C      0.975580000000     0.121560000000     0.022910000000    -0.0691812  
C80      C      0.975880000000     0.090880000000     0.023150000000     0.0285067  
C81      C      0.985240000000     0.075180000000     0.985890000000    -0.11419    
C82      C      0.994450000000     0.090810000000     0.948500000000     0.0266226  
C83      C      0.985250000000     0.169630000000     0.985700000000     0.0210613  
C84      C      0.010390000000     0.185060000000     0.972340000000    -0.0662161  
C85      C      0.010740000000     0.215720000000     0.972820000000     0.0304133  
C86      C      0.985770000000     0.231580000000     0.986010000000    -0.116406   
C87      C      0.960510000000     0.216110000000     0.998980000000     0.0284384  
C88      C      0.960350000000     0.185420000000     0.999180000000    -0.0680664  
C89      C      0.789650000000     0.961710000000     0.499500000000    -0.0681847  
C90      C      0.805260000000     0.986810000000     0.486400000000     0.0210182  
C91      C      0.789650000000     0.011920000000     0.473330000000    -0.0662397  
C92      C      0.758980000000     0.012010000000     0.473700000000     0.0305507  
C93      C      0.743310000000     0.986830000000     0.486440000000    -0.116484   
C94      C      0.758970000000     0.961630000000     0.499170000000     0.0285534  
C95      C      0.837770000000     0.986800000000     0.486370000000     0.0250397  
C96      C      0.853390000000     0.977080000000     0.523420000000    -0.0693739  
C97      C      0.884070000000     0.977300000000     0.523540000000     0.0283998  
C98      C      0.899720000000     0.986790000000     0.486310000000    -0.114513   
C99      C      0.884040000000     0.996280000000     0.449120000000     0.0265853  
C100     C      0.853360000000     0.996510000000     0.449290000000    -0.0713679  
C101     C      0.661450000000     0.012250000000     0.784800000000    -0.0662412  
C102     C      0.653430000000     0.987030000000     0.760940000000     0.0219961  
C103     C      0.645030000000     0.961720000000     0.784350000000    -0.067983   
C104     C      0.644860000000     0.961590000000     0.830310000000     0.0286393  
C105     C      0.652710000000     0.986860000000     0.854000000000    -0.116463   
C106     C      0.660910000000     0.012220000000     0.830740000000     0.0304353  
C107     C      0.653880000000     0.987100000000     0.711930000000     0.0219937  
C108     C      0.645880000000     0.012390000000     0.688190000000    -0.0659771  
C109     C      0.646460000000     0.012500000000     0.642230000000     0.0304356  
C110     C      0.654680000000     0.987200000000     0.618870000000    -0.116403   
C111     C      0.662550000000     0.961880000000     0.642460000000     0.0285489  
C112     C      0.662350000000     0.961890000000     0.688410000000    -0.0681351  
C113     C      0.662380000000     0.011810000000     0.284460000000    -0.0661467  
C114     C      0.653890000000     0.986600000000     0.260940000000     0.0219527  
C115     C      0.645870000000     0.961310000000     0.284690000000    -0.0679546  
C116     C      0.646460000000     0.961210000000     0.330650000000     0.0285646  
C117     C      0.654700000000     0.986500000000     0.354000000000    -0.116408   
C118     C      0.662590000000     0.011820000000     0.330410000000     0.0303793  
C119     C      0.653430000000     0.986680000000     0.211930000000     0.0220407  
C120     C      0.645040000000     0.011980000000     0.188530000000    -0.0660519  
C121     C      0.644870000000     0.012120000000     0.142560000000     0.0305878  
C122     C      0.652710000000     0.986840000000     0.118870000000    -0.11662    
C123     C      0.660890000000     0.961480000000     0.142130000000     0.0286403  
C124     C      0.661440000000     0.961450000000     0.188070000000    -0.0681789  
C125     C      0.787050000000     0.961710000000     0.999490000000    -0.0682861  
C126     C      0.802650000000     0.986810000000     0.986390000000     0.0210811  
C127     C      0.787050000000     0.011920000000     0.973320000000    -0.0662515  
C128     C      0.756380000000     0.012020000000     0.973690000000     0.0305626  
C129     C      0.740720000000     0.986830000000     0.986430000000    -0.116543   
C130     C      0.756370000000     0.961630000000     0.999160000000     0.0286072  
C131     C      0.835140000000     0.986800000000     0.986350000000     0.0250038  
C132     C      0.850760000000     0.977170000000     0.023460000000    -0.0693897  
C133     C      0.881440000000     0.977400000000     0.023570000000     0.0286197  
C134     C      0.897080000000     0.986790000000     0.986290000000    -0.114781   
C135     C      0.881410000000     0.996190000000     0.949050000000     0.0267395  
C136     C      0.850730000000     0.996420000000     0.949220000000    -0.0713836  
C137     C      0.010320000000     0.518790000000     0.498900000000    -0.0662152  
C138     C      0.985000000000     0.503160000000     0.486450000000     0.022056   
C139     C      0.959800000000     0.519080000000     0.474280000000    -0.0679281  
C140     C      0.959920000000     0.549770000000     0.474610000000     0.0286716  
C141     C      0.985360000000     0.565270000000     0.486540000000    -0.116544   
C142     C      0.010550000000     0.549450000000     0.498630000000     0.0306836  
C143     C      0.985000000000     0.470440000000     0.486030000000     0.0221133  
C144     C      0.010310000000     0.454810000000     0.473580000000    -0.0662279  
C145     C      0.010540000000     0.424150000000     0.473840000000     0.0306117  
C146     C      0.985340000000     0.408330000000     0.485940000000    -0.116523   
C147     C      0.959910000000     0.423840000000     0.497870000000     0.0287061  
C148     C      0.959790000000     0.454530000000     0.498190000000    -0.0680016  
C149     C      0.963190000000     0.788560000000     0.471610000000    -0.0682425  
C150     C      0.988330000000     0.803980000000     0.485000000000     0.0209648  
C151     C      0.013250000000     0.788180000000     0.498420000000    -0.0661227  
C152     C      0.013090000000     0.757490000000     0.498140000000     0.0304211  
C153     C      0.987830000000     0.742030000000     0.485160000000    -0.116509   
C154     C      0.962860000000     0.757900000000     0.472030000000     0.0285906  
C155     C      0.988490000000     0.836480000000     0.485110000000     0.0250706  
C156     C      0.978950000000     0.852180000000     0.448040000000    -0.069438   
C157     C      0.979080000000     0.882860000000     0.448120000000     0.0284793  
C158     C      0.988310000000     0.898430000000     0.485560000000    -0.114641   
C159     C      0.997690000000     0.882670000000     0.522740000000     0.0266512  
C160     C      0.998010000000     0.851990000000     0.522380000000    -0.0713773  
C161     C      0.963310000000     0.518760000000     0.973350000000    -0.0681297  
C162     C      0.988620000000     0.503160000000     0.985920000000     0.0221019  
C163     C      0.013830000000     0.519110000000     0.997970000000    -0.0661106  
C164     C      0.013710000000     0.549810000000     0.997420000000     0.0305788  
C165     C      0.988280000000     0.565280000000     0.985390000000    -0.116513   
C166     C      0.963080000000     0.549420000000     0.973400000000     0.0286988  
C167     C      0.988620000000     0.470450000000     0.986580000000     0.0220118  
C168     C      0.963300000000     0.454850000000     0.999140000000    -0.0681166  
C169     C      0.963070000000     0.424200000000     0.999100000000     0.0286881  
C170     C      0.988260000000     0.408340000000     0.987100000000    -0.116496   
C171     C      0.013700000000     0.423800000000     0.975070000000     0.0305478  
C172     C      0.013820000000     0.454490000000     0.974530000000    -0.0659504  
C173     C      0.961450000000     0.662250000000     0.687810000000    -0.0680044  
C174     C      0.986770000000     0.654040000000     0.711330000000     0.0220015  
C175     C      0.011950000000     0.645750000000     0.687580000000    -0.0662502  
C176     C      0.011880000000     0.645880000000     0.641640000000     0.0305538  
C177     C      0.986520000000     0.653910000000     0.618270000000    -0.116551   
C178     C      0.961270000000     0.662000000000     0.641850000000     0.0285805  
C179     C      0.986900000000     0.654020000000     0.760340000000     0.0219828  
C180     C      0.012220000000     0.662220000000     0.783870000000    -0.0660384  
C181     C      0.012400000000     0.661960000000     0.829830000000     0.0304888  
C182     C      0.987150000000     0.653870000000     0.853400000000    -0.116528   
C183     C      0.961790000000     0.645840000000     0.830020000000     0.0286297  
C184     C      0.961720000000     0.645730000000     0.784080000000    -0.0681408  
C185     C      0.961560000000     0.645100000000     0.187660000000    -0.0679881  
C186     C      0.986810000000     0.653310000000     0.211330000000     0.0220113  
C187     C      0.012070000000     0.661580000000     0.187740000000    -0.0662479  
C188     C      0.012130000000     0.661450000000     0.141790000000     0.030447   
C189     C      0.986830000000     0.653430000000     0.118270000000    -0.116407   
C190     C      0.961510000000     0.645350000000     0.141690000000     0.0285837  
C191     C      0.986800000000     0.653290000000     0.260340000000     0.0220007  
C192     C      0.961550000000     0.661550000000     0.283940000000    -0.0681046  
C193     C      0.961490000000     0.661410000000     0.329890000000     0.0285327  
C194     C      0.986790000000     0.653380000000     0.353400000000    -0.11643    
C195     C      0.012100000000     0.645310000000     0.329960000000     0.0305627  
C196     C      0.012050000000     0.645070000000     0.284000000000    -0.0660576  
C197     C      0.975610000000     0.852050000000     0.949540000000    -0.069407   
C198     C      0.985130000000     0.836480000000     0.986740000000     0.0250094  
C199     C      0.994670000000     0.852130000000     0.023880000000    -0.0712947  
C200     C      0.994510000000     0.882810000000     0.023920000000     0.0266245  
C201     C      0.985280000000     0.898430000000     0.986530000000    -0.114614   
C202     C      0.975910000000     0.882730000000     0.949290000000     0.0284781  
C203     C      0.985310000000     0.803980000000     0.986730000000     0.0208852  
C204     C      0.960400000000     0.788190000000     0.973280000000    -0.0680261  
C205     C      0.960560000000     0.757500000000     0.973490000000     0.0284546  
C206     C      0.985820000000     0.742040000000     0.986450000000    -0.11645    
C207     C      0.010790000000     0.757890000000     0.999610000000     0.0303215  
C208     C      0.010450000000     0.788550000000     0.000090000000    -0.0661108  
C209     C      0.455910000000     0.012160000000     0.498440000000    -0.0660771  
C210     C      0.471690000000     0.986890000000     0.486210000000     0.0220315  
C211     C      0.455930000000     0.961620000000     0.473930000000    -0.0680225  
C212     C      0.425250000000     0.961570000000     0.474160000000     0.0285832  
C213     C      0.409580000000     0.986890000000     0.486110000000    -0.116427   
C214     C      0.425240000000     0.012220000000     0.498100000000     0.0304704  
C215     C      0.504410000000     0.986890000000     0.486270000000     0.0220537  
C216     C      0.520190000000     0.012120000000     0.473870000000    -0.0661505  
C217     C      0.550870000000     0.012170000000     0.474210000000     0.030514   
C218     C      0.566520000000     0.986880000000     0.486380000000    -0.116476   
C219     C      0.550840000000     0.961590000000     0.498510000000     0.0285821  
C220     C      0.520170000000     0.961650000000     0.498740000000    -0.0680365  
C221     C      0.186490000000     0.961770000000     0.472930000000    -0.0682547  
C222     C      0.170890000000     0.986860000000     0.486070000000     0.0211842  
C223     C      0.186490000000     0.011960000000     0.499190000000    -0.0662886  
C224     C      0.217160000000     0.012060000000     0.498820000000     0.0306423  
C225     C      0.232820000000     0.986880000000     0.486040000000    -0.116555   
C226     C      0.217170000000     0.961690000000     0.473270000000     0.0287234  
C227     C      0.138400000000     0.986850000000     0.486100000000     0.0250401  
C228     C      0.122780000000     0.977260000000     0.448970000000    -0.0692207  
C229     C      0.092110000000     0.977480000000     0.448850000000     0.0285711  
C230     C      0.076460000000     0.986830000000     0.486150000000    -0.114287   
C231     C      0.092130000000     0.996190000000     0.523430000000     0.026684   
C232     C      0.122810000000     0.996430000000     0.523250000000    -0.071162   
C233     C      0.453370000000     0.961660000000     0.973760000000    -0.0679698  
C234     C      0.469130000000     0.986890000000     0.986220000000     0.0220009  
C235     C      0.453350000000     0.012120000000     0.998620000000    -0.0660721  
C236     C      0.422680000000     0.012180000000     0.998290000000     0.0303962  
C237     C      0.407020000000     0.986890000000     0.986110000000    -0.116402   
C238     C      0.422690000000     0.961600000000     0.973990000000     0.0285049  
C239     C      0.501850000000     0.986890000000     0.986280000000     0.0220806  
C240     C      0.517610000000     0.961610000000     0.998570000000    -0.0681246  
C241     C      0.548280000000     0.961550000000     0.998330000000     0.0286015  
C242     C      0.563960000000     0.986880000000     0.986390000000    -0.116566   
C243     C      0.548310000000     0.012200000000     0.974390000000     0.0305861  
C244     C      0.517630000000     0.012160000000     0.974060000000    -0.0661559  
C245     C      0.312090000000     0.012280000000     0.687680000000    -0.0661912  
C246     C      0.320110000000     0.987060000000     0.711540000000     0.0220182  
C247     C      0.328510000000     0.961760000000     0.688140000000    -0.0680125  
C248     C      0.328670000000     0.961620000000     0.642180000000     0.0286334  
C249     C      0.320820000000     0.986900000000     0.618490000000    -0.116527   
C250     C      0.312630000000     0.012260000000     0.641740000000     0.0304607  
C251     C      0.319660000000     0.987140000000     0.760560000000     0.0220386  
C252     C      0.327670000000     0.012430000000     0.784300000000    -0.0660932  
C253     C      0.327080000000     0.012530000000     0.830260000000     0.0305757  
C254     C      0.318860000000     0.987240000000     0.853610000000    -0.116443   
C255     C      0.310980000000     0.961920000000     0.830030000000     0.0285831  
C256     C      0.311190000000     0.961920000000     0.784080000000    -0.0681911  
C257     C      0.328510000000     0.012020000000     0.283960000000    -0.0660812  
C258     C      0.320110000000     0.986710000000     0.260560000000     0.022021   
C259     C      0.312100000000     0.961490000000     0.284420000000    -0.0681593  
C260     C      0.312650000000     0.961520000000     0.330360000000     0.0286215  
C261     C      0.320840000000     0.986870000000     0.353610000000    -0.116471   
C262     C      0.328680000000     0.012150000000     0.329920000000     0.0305528  
C263     C      0.319650000000     0.986630000000     0.211540000000     0.0220546  
C264     C      0.311170000000     0.011850000000     0.188020000000    -0.0662832  
C265     C      0.310960000000     0.011860000000     0.142080000000     0.0305453  
C266     C      0.318840000000     0.986540000000     0.118490000000    -0.116576   
C267     C      0.327070000000     0.961250000000     0.141840000000     0.028691   
C268     C      0.327660000000     0.961350000000     0.187800000000    -0.06803    
C269     C      0.183890000000     0.961780000000     0.972920000000    -0.0681377  
C270     C      0.168280000000     0.986870000000     0.986050000000     0.021107   
C271     C      0.183890000000     0.011960000000     0.999170000000    -0.0661753  
C272     C      0.214570000000     0.012060000000     0.998810000000     0.0303946  
C273     C      0.230230000000     0.986880000000     0.986030000000    -0.116316   
C274     C      0.214570000000     0.961700000000     0.973260000000     0.028582   
C275     C      0.135770000000     0.986860000000     0.986080000000     0.024943   
C276     C      0.120150000000     0.977180000000     0.949010000000    -0.0691414  
C277     C      0.089470000000     0.977400000000     0.948890000000     0.0284373  
C278     C      0.073820000000     0.986830000000     0.986130000000    -0.114072   
C279     C      0.089500000000     0.996280000000     0.023350000000     0.0266176  
C280     C      0.120170000000     0.996530000000     0.023180000000    -0.0710587  
H1       H      0.031720000000     0.335540000000     0.705400000000     0.0469825  
H2       H      0.031860000000     0.334820000000     0.625360000000     0.0342567  
H3       H      0.941650000000     0.305630000000     0.625510000000     0.033896   
H4       H      0.941830000000     0.305070000000     0.705500000000     0.0468527  
H5       H      0.941840000000     0.335550000000     0.767910000000     0.0469377  
H6       H      0.941700000000     0.334800000000     0.847950000000     0.0342454  
H7       H      0.031890000000     0.305580000000     0.847770000000     0.0338714  
H8       H      0.031710000000     0.305040000000     0.767780000000     0.0469248  
H9       H      0.031650000000     0.334830000000     0.268060000000     0.046928   
H10      H      0.031600000000     0.334300000000     0.348030000000     0.033985   
H11      H      0.941400000000     0.305080000000     0.347680000000     0.0342432  
H12      H      0.941760000000     0.304340000000     0.267630000000     0.0468791  
H13      H      0.031830000000     0.304340000000     0.205650000000     0.0469228  
H14      H      0.032180000000     0.305110000000     0.125600000000     0.0342818  
H15      H      0.942000000000     0.334350000000     0.125280000000     0.0340148  
H16      H      0.941950000000     0.334860000000     0.205250000000     0.0468807  
H17      H      0.032910000000     0.174020000000     0.463800000000     0.0478616  
H18      H      0.032590000000     0.227710000000     0.463890000000     0.034194   
H19      H      0.943050000000     0.226980000000     0.510800000000     0.033898   
H20      H      0.943600000000     0.173360000000     0.511100000000     0.0476575  
H21      H      0.971660000000     0.132890000000     0.553690000000     0.0479114  
H22      H      0.971660000000     0.079230000000     0.553490000000     0.0344363  
H23      H      0.004960000000     0.079580000000     0.420410000000     0.0367468  
H24      H      0.005200000000     0.133240000000     0.420970000000     0.0501582  
H25      H      0.968320000000     0.133130000000     0.052060000000     0.047988   
H26      H      0.968560000000     0.079470000000     0.052410000000     0.0344405  
H27      H      0.001840000000     0.079350000000     0.919320000000     0.0367376  
H28      H      0.001850000000     0.133010000000     0.919330000000     0.0501165  
H29      H      0.029940000000     0.173380000000     0.962080000000     0.0477657  
H30      H      0.030500000000     0.227000000000     0.962510000000     0.0339272  
H31      H      0.940970000000     0.227700000000     0.009430000000     0.0342241  
H32      H      0.940630000000     0.174010000000     0.009380000000     0.0477504  
H33      H      0.801200000000     0.031610000000     0.463350000000     0.0476999  
H34      H      0.747540000000     0.031740000000     0.463590000000     0.0338365  
H35      H      0.747530000000     0.941920000000     0.509290000000     0.0338489  
H36      H      0.801190000000     0.942020000000     0.509460000000     0.0475669  
H37      H      0.841860000000     0.969660000000     0.552520000000     0.0477995  
H38      H      0.895520000000     0.969780000000     0.552650000000     0.0340062  
H39      H      0.895470000000     0.003800000000     0.419990000000     0.0363139  
H40      H      0.841810000000     0.003940000000     0.420220000000     0.0500288  
H41      H      0.638180000000     0.942050000000     0.767210000000     0.0469185  
H42      H      0.638220000000     0.941760000000     0.847260000000     0.0342263  
H43      H      0.667330000000     0.031990000000     0.848030000000     0.0339128  
H44      H      0.668580000000     0.031970000000     0.768070000000     0.0468758  
H45      H      0.638720000000     0.032070000000     0.705030000000     0.046951   
H46      H      0.640040000000     0.032290000000     0.625010000000     0.0342886  
H47      H      0.669230000000     0.942090000000     0.625440000000     0.0339038  
H48      H      0.669210000000     0.942180000000     0.705430000000     0.0468062  
H49      H      0.638710000000     0.941640000000     0.267850000000     0.0469156  
H50      H      0.640030000000     0.941420000000     0.347870000000     0.0342692  
H51      H      0.669270000000     0.031600000000     0.347440000000     0.0339146  
H52      H      0.669250000000     0.031520000000     0.267440000000     0.0468525  
H53      H      0.638210000000     0.031660000000     0.205670000000     0.0469875  
H54      H      0.638240000000     0.031950000000     0.125610000000     0.0342451  
H55      H      0.667290000000     0.941700000000     0.124840000000     0.0339054  
H56      H      0.668560000000     0.941720000000     0.204800000000     0.0468058  
H57      H      0.798600000000     0.031610000000     0.963330000000     0.0477226  
H58      H      0.744940000000     0.031740000000     0.963580000000     0.0338278  
H59      H      0.744930000000     0.941920000000     0.009290000000     0.0338707  
H60      H      0.798590000000     0.942020000000     0.009450000000     0.0476515  
H61      H      0.839220000000     0.969820000000     0.052590000000     0.0478449  
H62      H      0.892880000000     0.969940000000     0.052720000000     0.0339687  
H63      H      0.892830000000     0.003640000000     0.919870000000     0.0362847  
H64      H      0.839170000000     0.003780000000     0.920110000000     0.0500453  
H65      H      0.940040000000     0.507880000000     0.463810000000     0.0469795  
H66      H      0.940200000000     0.561340000000     0.464840000000     0.0341867  
H67      H      0.030430000000     0.560740000000     0.508420000000     0.033897   
H68      H      0.029960000000     0.507380000000     0.509360000000     0.0468992  
H69      H      0.029950000000     0.466210000000     0.463110000000     0.0469094  
H70      H      0.030410000000     0.412850000000     0.464060000000     0.0339161  
H71      H      0.940190000000     0.412270000000     0.507640000000     0.0341818  
H72      H      0.940040000000     0.465730000000     0.508670000000     0.0470115  
H73      H      0.032970000000     0.799580000000     0.508630000000     0.0477646  
H74      H      0.032640000000     0.745890000000     0.508550000000     0.0341486  
H75      H      0.943090000000     0.746620000000     0.461710000000     0.0338653  
H76      H      0.943640000000     0.800250000000     0.461400000000     0.047532   
H77      H      0.971680000000     0.840710000000     0.418800000000     0.0477978  
H78      H      0.971670000000     0.894370000000     0.419000000000     0.0340073  
H79      H      0.005030000000     0.894030000000     0.552030000000     0.0363303  
H80      H      0.005290000000     0.840370000000     0.551480000000     0.0500585  
H81      H      0.033580000000     0.507950000000     0.008530000000     0.047131   
H82      H      0.033430000000     0.561400000000     0.007130000000     0.0342492  
H83      H      0.943210000000     0.560690000000     0.963540000000     0.0339196  
H84      H      0.943670000000     0.507320000000     0.962970000000     0.0468361  
H85      H      0.943660000000     0.466300000000     0.009530000000     0.0468578  
H86      H      0.943190000000     0.412940000000     0.008950000000     0.0339554  
H87      H      0.033410000000     0.412200000000     0.965360000000     0.0342145  
H88      H      0.033580000000     0.465660000000     0.963970000000     0.0470174  
H89      H      0.031680000000     0.638760000000     0.704420000000     0.0469578  
H90      H      0.031630000000     0.639300000000     0.624450000000     0.0339592  
H91      H      0.941440000000     0.668530000000     0.624800000000     0.0342093  
H92      H      0.941800000000     0.669270000000     0.704850000000     0.0468469  
H93      H      0.031870000000     0.669250000000     0.766830000000     0.0469014  
H94      H      0.032220000000     0.668480000000     0.846880000000     0.0342356  
H95      H      0.942030000000     0.639260000000     0.847210000000     0.0339793  
H96      H      0.941990000000     0.638740000000     0.767230000000     0.0468816  
H97      H      0.031750000000     0.668570000000     0.204700000000     0.0468949  
H98      H      0.031930000000     0.668030000000     0.124710000000     0.0338839  
H99      H      0.941730000000     0.638820000000     0.124530000000     0.0342822  
H100     H      0.941870000000     0.638070000000     0.204570000000     0.0469316  
H101     H      0.941860000000     0.668550000000     0.266980000000     0.0467868  
H102     H      0.941690000000     0.667980000000     0.346980000000     0.0339047  
H103     H      0.031890000000     0.638780000000     0.347120000000     0.034271   
H104     H      0.031750000000     0.638060000000     0.267080000000     0.0469854  
H105     H      0.001940000000     0.840610000000     0.053080000000     0.0499965  
H106     H      0.001920000000     0.894260000000     0.053080000000     0.0363311  
H107     H      0.968570000000     0.894140000000     0.920040000000     0.0340204  
H108     H      0.968340000000     0.840480000000     0.920390000000     0.0478371  
H109     H      0.940680000000     0.799600000000     0.963090000000     0.0475896  
H110     H      0.941010000000     0.745910000000     0.963060000000     0.0341212  
H111     H      0.030560000000     0.746620000000     0.009910000000     0.0339352  
H112     H      0.030000000000     0.800240000000     0.010320000000     0.0476458  
H113     H      0.467240000000     0.941910000000     0.463530000000     0.0469147  
H114     H      0.413830000000     0.941760000000     0.464400000000     0.0342433  
H115     H      0.413810000000     0.032030000000     0.507820000000     0.0342521  
H116     H      0.467210000000     0.031870000000     0.508880000000     0.0469657  
H117     H      0.508900000000     0.031790000000     0.463290000000     0.0470084  
H118     H      0.562310000000     0.031940000000     0.464340000000     0.0342441  
H119     H      0.562260000000     0.941810000000     0.508400000000     0.0342384  
H120     H      0.508850000000     0.941980000000     0.509280000000     0.0469206  
H121     H      0.174940000000     0.031640000000     0.509200000000     0.0478652  
H122     H      0.228600000000     0.031770000000     0.508970000000     0.0338563  
H123     H      0.228610000000     0.941980000000     0.463110000000     0.0338518  
H124     H      0.174950000000     0.942090000000     0.462930000000     0.0477352  
H125     H      0.134320000000     0.969950000000     0.419810000000     0.0479657  
H126     H      0.080660000000     0.970060000000     0.419680000000     0.0343876  
H127     H      0.080700000000     0.003600000000     0.552620000000     0.0366993  
H128     H      0.134360000000     0.003750000000     0.552390000000     0.0501727  
H129     H      0.464650000000     0.031800000000     0.009210000000     0.0469906  
H130     H      0.411240000000     0.031960000000     0.008150000000     0.0343084  
H131     H      0.411270000000     0.941830000000     0.964090000000     0.034248   
H132     H      0.464680000000     0.941980000000     0.963220000000     0.0468848  
H133     H      0.506290000000     0.941910000000     0.008970000000     0.046985   
H134     H      0.559700000000     0.941740000000     0.008090000000     0.0342705  
H135     H      0.559740000000     0.032010000000     0.964660000000     0.0342223  
H136     H      0.506340000000     0.031870000000     0.963610000000     0.0469868  
H137     H      0.335350000000     0.942090000000     0.705270000000     0.0469465  
H138     H      0.335310000000     0.941800000000     0.625220000000     0.0342411  
H139     H      0.306220000000     0.032030000000     0.624450000000     0.0339196  
H140     H      0.304970000000     0.032010000000     0.704420000000     0.0468687  
H141     H      0.334830000000     0.032100000000     0.767460000000     0.0470032  
H142     H      0.333510000000     0.032330000000     0.847480000000     0.0342632  
H143     H      0.304310000000     0.942130000000     0.847050000000     0.0339109  
H144     H      0.304330000000     0.942220000000     0.767060000000     0.0468664  
H145     H      0.304980000000     0.941760000000     0.267690000000     0.0468265  
H146     H      0.306250000000     0.941740000000     0.347650000000     0.0339367  
H147     H      0.335310000000     0.031980000000     0.346870000000     0.0342489  
H148     H      0.335340000000     0.031690000000     0.266820000000     0.0470148  
H149     H      0.304310000000     0.031550000000     0.205050000000     0.0469314  
H150     H      0.304270000000     0.031640000000     0.125050000000     0.0338884  
H151     H      0.333500000000     0.941450000000     0.124620000000     0.0342446  
H152     H      0.334830000000     0.941680000000     0.204640000000     0.0469341  
H153     H      0.172340000000     0.031650000000     0.009180000000     0.0478204  
H154     H      0.226000000000     0.031770000000     0.008960000000     0.0339559  
H155     H      0.226010000000     0.941980000000     0.963110000000     0.0338844  
H156     H      0.172350000000     0.942090000000     0.962920000000     0.0476512  
H157     H      0.131690000000     0.969790000000     0.919890000000     0.0479116  
H158     H      0.078030000000     0.969900000000     0.919750000000     0.0344098  
H159     H      0.078070000000     0.003770000000     0.052500000000     0.0367202  
H160     H      0.131730000000     0.003920000000     0.052280000000     0.0501218  
Ni1      Ni     0.318620000000     0.013080000000     0.986330000000     0.995642   
Ni2      Ni     0.318620000000     0.960690000000     0.985780000000     0.991902   
Ni3      Ni     0.321180000000     0.013090000000     0.486160000000     0.996015   
Ni4      Ni     0.321190000000     0.960690000000     0.485940000000     0.992256   
Ni5      Ni     0.013240000000     0.654100000000     0.986020000000     0.995358   
Ni6      Ni     0.960850000000     0.653230000000     0.985640000000     0.992829   
Ni7      Ni     0.012790000000     0.653220000000     0.486020000000     0.996503   
Ni8      Ni     0.960400000000     0.654100000000     0.485650000000     0.991583   
Ni9      Ni     0.652370000000     0.013050000000     0.986330000000     0.995918   
Ni10     Ni     0.652350000000     0.960650000000     0.986540000000     0.992166   
Ni11     Ni     0.654930000000     0.013050000000     0.486160000000     0.995807   
Ni12     Ni     0.654910000000     0.960650000000     0.486710000000     0.99179    
Ni13     Ni     0.985420000000     0.986750000000     0.946970000000     0.989981   
Ni14     Ni     0.985450000000     0.986870000000     0.025450000000     0.990262   
Ni15     Ni     0.988090000000     0.986930000000     0.446990000000     0.990319   
Ni16     Ni     0.988120000000     0.986670000000     0.525480000000     0.990182   
Ni17     Ni     0.960820000000     0.320390000000     0.986840000000     0.99268    
Ni18     Ni     0.013210000000     0.319510000000     0.986460000000     0.995218   
Ni19     Ni     0.960360000000     0.319510000000     0.486830000000     0.991401   
Ni20     Ni     0.012750000000     0.320380000000     0.486460000000     0.996789   
O1       O      0.276580000000     0.011350000000     0.985970000000    -0.436075   
O2       O      0.360650000000     0.011350000000     0.986920000000    -0.436247   
O3       O      0.319040000000     0.011550000000     0.923280000000    -0.435491   
O4       O      0.318230000000     0.011140000000     0.049220000000    -0.437096   
O5       O      0.319020000000     0.962230000000     0.048830000000    -0.436993   
O6       O      0.318250000000     0.962630000000     0.922880000000    -0.438185   
O7       O      0.360650000000     0.962440000000     0.985220000000    -0.437633   
O8       O      0.276590000000     0.962420000000     0.986100000000    -0.437523   
O9       O      0.279150000000     0.011350000000     0.485830000000    -0.436342   
O10      O      0.363210000000     0.011350000000     0.486750000000    -0.436368   
O11      O      0.321550000000     0.011370000000     0.423120000000    -0.435694   
O12      O      0.320760000000     0.011320000000     0.549060000000    -0.437195   
O13      O      0.321550000000     0.962410000000     0.548980000000    -0.436998   
O14      O      0.320780000000     0.962450000000     0.423030000000    -0.438234   
O15      O      0.363210000000     0.962430000000     0.485380000000    -0.437728   
O16      O      0.279160000000     0.962420000000     0.486250000000    -0.437678   
O17      O      0.011600000000     0.654310000000     0.922970000000    -0.435582   
O18      O      0.011390000000     0.654000000000     0.048940000000    -0.436742   
O19      O      0.012150000000     0.612000000000     0.985910000000    -0.435539   
O20      O      0.010870000000     0.696060000000     0.986400000000    -0.437043   
O21      O      0.961960000000     0.695320000000     0.985710000000    -0.43723    
O22      O      0.963230000000     0.611270000000     0.985340000000    -0.438398   
O23      O      0.962470000000     0.653050000000     0.048670000000    -0.437073   
O24      O      0.962690000000     0.653300000000     0.922760000000    -0.438696   
O25      O      0.011160000000     0.653010000000     0.422990000000    -0.435856   
O26      O      0.010960000000     0.653330000000     0.548900000000    -0.437407   
O27      O      0.010400000000     0.611260000000     0.486390000000    -0.437256   
O28      O      0.011690000000     0.695320000000     0.485890000000    -0.435651   
O29      O      0.962770000000     0.696060000000     0.485220000000    -0.438236   
O30      O      0.961490000000     0.612000000000     0.485840000000    -0.436972   
O31      O      0.962050000000     0.654340000000     0.548710000000    -0.436809   
O32      O      0.962240000000     0.653960000000     0.422740000000    -0.438068   
O33      O      0.652780000000     0.011290000000     0.923420000000    -0.436989   
O34      O      0.651990000000     0.011330000000     0.049370000000    -0.435686   
O35      O      0.694390000000     0.011310000000     0.986660000000    -0.436478   
O36      O      0.610330000000     0.011320000000     0.985740000000    -0.43641    
O37      O      0.610320000000     0.962410000000     0.987110000000    -0.43776    
O38      O      0.694380000000     0.962380000000     0.986230000000    -0.437702   
O39      O      0.652760000000     0.962420000000     0.049450000000    -0.438341   
O40      O      0.651990000000     0.962370000000     0.923510000000    -0.437042   
O41      O      0.655320000000     0.011110000000     0.423260000000    -0.437038   
O42      O      0.654510000000     0.011510000000     0.549210000000    -0.435704   
O43      O      0.696960000000     0.011300000000     0.486510000000    -0.436392   
O44      O      0.612890000000     0.011320000000     0.485570000000    -0.436303   
O45      O      0.612880000000     0.962410000000     0.487270000000    -0.437605   
O46      O      0.696950000000     0.962380000000     0.486380000000    -0.437484   
O47      O      0.655290000000     0.962590000000     0.549610000000    -0.438165   
O48      O      0.654510000000     0.962190000000     0.423660000000    -0.436863   
O49      O      0.027450000000     0.985900000000     0.949550000000    -0.436233   
O50      O      0.943400000000     0.987600000000     0.949620000000    -0.438126   
O51      O      0.986250000000     0.028780000000     0.949440000000    -0.43656    
O52      O      0.984560000000     0.944720000000     0.949730000000    -0.4377     
O53      O      0.986300000000     0.944840000000     0.022980000000    -0.438041   
O54      O      0.984570000000     0.028890000000     0.022700000000    -0.436212   
O55      O      0.943430000000     0.986000000000     0.022880000000    -0.437906   
O56      O      0.027480000000     0.987730000000     0.022800000000    -0.436366   
O57      O      0.030110000000     0.986080000000     0.449560000000    -0.436412   
O58      O      0.946060000000     0.987770000000     0.449650000000    -0.437942   
O59      O      0.988950000000     0.028950000000     0.449920000000    -0.436504   
O60      O      0.987260000000     0.944900000000     0.449290000000    -0.437842   
O61      O      0.989000000000     0.944650000000     0.522550000000    -0.437894   
O62      O      0.987270000000     0.028700000000     0.523180000000    -0.436286   
O63      O      0.946090000000     0.985810000000     0.522890000000    -0.437717   
O64      O      0.030140000000     0.987550000000     0.522830000000    -0.436541   
O65      O      0.962440000000     0.320570000000     0.923810000000    -0.437241   
O66      O      0.962650000000     0.320310000000     0.049720000000    -0.438576   
O67      O      0.963210000000     0.362350000000     0.987150000000    -0.438492   
O68      O      0.961910000000     0.278290000000     0.986760000000    -0.436898   
O69      O      0.010830000000     0.277550000000     0.986070000000    -0.436977   
O70      O      0.012120000000     0.361610000000     0.986580000000    -0.435693   
O71      O      0.011570000000     0.319300000000     0.049520000000    -0.43534    
O72      O      0.011350000000     0.319620000000     0.923540000000    -0.43683    
O73      O      0.962010000000     0.319260000000     0.423770000000    -0.436625   
O74      O      0.962210000000     0.319650000000     0.549740000000    -0.43813    
O75      O      0.961460000000     0.361610000000     0.486640000000    -0.436767   
O76      O      0.962730000000     0.277550000000     0.487260000000    -0.43812    
O77      O      0.011650000000     0.278280000000     0.486590000000    -0.435627   
O78      O      0.010380000000     0.362330000000     0.486090000000    -0.437205   
O79      O      0.011120000000     0.320590000000     0.549490000000    -0.43604    
O80      O      0.010930000000     0.320270000000     0.423580000000    -0.437353   


