data_structure

_audit_creation_method RASPA-1.0
_audit_creation_date 2023-5-22
_audit_author_name 'Poobodin Mano'

_cell_length_a    60.7664
_cell_length_b    60.7663
_cell_length_c    30.4113
_cell_angle_alpha 90
_cell_angle_beta  90
_cell_angle_gamma 90
_cell_volume      112295

_symmetry_cell_setting          triclinic
_symmetry_space_group_name_Hall 'P 1'
_symmetry_space_group_name_H-M  'P 1'
_symmetry_Int_Tables_number     1

_symmetry_equiv_pos_as_xyz 'x,y,z'

loop_
_atom_site_label
_atom_site_type_symbol
_atom_site_fract_x
_atom_site_fract_y
_atom_site_fract_z
_atom_site_charge
C1       C      0.361330000000     0.903510000000     0.987560000000     0.386699   
C2       C      0.361470000000     0.819660000000     0.987750000000     0.386997   
C3       C      0.361500000000     0.861600000000     0.071460000000     0.386811   
C4       C      0.361290000000     0.861530000000     0.903900000000     0.386416   
C5       C      0.361340000000     0.903420000000     0.487510000000     0.386652   
C6       C      0.361360000000     0.819570000000     0.487820000000     0.386461   
C7       C      0.361470000000     0.861550000000     0.571460000000     0.386446   
C8       C      0.361240000000     0.861420000000     0.403900000000     0.386408   
C9       C      0.361270000000     0.069880000000     0.985900000000     0.386539   
C10      C      0.361340000000     0.153730000000     0.985440000000     0.387013   
C11      C      0.361420000000     0.111730000000     0.901880000000     0.386503   
C12      C      0.361190000000     0.111910000000     0.069440000000     0.386862   
C13      C      0.361320000000     0.069800000000     0.485800000000     0.386651   
C14      C      0.361350000000     0.153650000000     0.485540000000     0.386608   
C15      C      0.361440000000     0.111700000000     0.401880000000     0.386829   
C16      C      0.361220000000     0.111790000000     0.569440000000     0.386461   
C17      C      0.903750000000     0.611710000000     0.987140000000     0.386842   
C18      C      0.819900000000     0.611650000000     0.987570000000     0.386551   
C19      C      0.861880000000     0.611610000000     0.071150000000     0.386479   
C20      C      0.861710000000     0.611770000000     0.903600000000     0.386468   
C21      C      0.903080000000     0.611700000000     0.487170000000     0.38619    
C22      C      0.819230000000     0.611780000000     0.487540000000     0.386423   
C23      C      0.861220000000     0.611600000000     0.571150000000     0.386475   
C24      C      0.861090000000     0.611880000000     0.403600000000     0.386369   
C25      C      0.070120000000     0.611700000000     0.984740000000     0.386619   
C26      C      0.153970000000     0.611650000000     0.984300000000     0.386607   
C27      C      0.111960000000     0.611530000000     0.900720000000     0.386471   
C28      C      0.112140000000     0.611820000000     0.068270000000     0.386475   
C29      C      0.069460000000     0.611650000000     0.484680000000     0.386737   
C30      C      0.153310000000     0.611660000000     0.484350000000     0.386548   
C31      C      0.111360000000     0.611580000000     0.400720000000     0.386902   
C32      C      0.111480000000     0.611740000000     0.568270000000     0.386461   
C33      C      0.611090000000     0.069910000000     0.987800000000     0.386173   
C34      C      0.611470000000     0.153760000000     0.987850000000     0.386602   
C35      C      0.611200000000     0.111870000000     0.071630000000     0.386926   
C36      C      0.611420000000     0.111840000000     0.904080000000     0.386326   
C37      C      0.611900000000     0.069880000000     0.487420000000     0.386184   
C38      C      0.611560000000     0.153720000000     0.488230000000     0.386603   
C39      C      0.611600000000     0.111640000000     0.571630000000     0.386192   
C40      C      0.611820000000     0.111990000000     0.404070000000     0.386499   
C41      C      0.611110000000     0.903550000000     0.984590000000     0.387014   
C42      C      0.611980000000     0.819700000000     0.984500000000     0.386747   
C43      C      0.611410000000     0.861640000000     0.900740000000     0.386436   
C44      C      0.611680000000     0.861590000000     0.068300000000     0.386505   
C45      C      0.611890000000     0.903500000000     0.484960000000     0.386595   
C46      C      0.611070000000     0.819650000000     0.484120000000     0.386676   
C47      C      0.611410000000     0.861730000000     0.400740000000     0.386489   
C48      C      0.611570000000     0.861420000000     0.568300000000     0.386476   
C49      C      0.361460000000     0.319660000000     0.985830000000     0.386394   
C50      C      0.361600000000     0.403510000000     0.986510000000     0.386613   
C51      C      0.319610000000     0.361670000000     0.986860000000     0.386341   
C52      C      0.403460000000     0.361490000000     0.985720000000     0.386412   
C53      C      0.361370000000     0.319580000000     0.486240000000     0.386556   
C54      C      0.361320000000     0.403430000000     0.486950000000     0.386578   
C55      C      0.319430000000     0.361500000000     0.487170000000     0.38659    
C56      C      0.403280000000     0.361490000000     0.486280000000     0.38668    
C57      C      0.361770000000     0.653730000000     0.986450000000     0.386727   
C58      C      0.361860000000     0.569890000000     0.985450000000     0.386481   
C59      C      0.319910000000     0.611750000000     0.985310000000     0.386526   
C60      C      0.403760000000     0.611900000000     0.986320000000     0.386249   
C61      C      0.361180000000     0.653650000000     0.486690000000     0.386391   
C62      C      0.361110000000     0.569800000000     0.485760000000     0.386398   
C63      C      0.319230000000     0.611750000000     0.485580000000     0.386836   
C64      C      0.403070000000     0.611710000000     0.486600000000     0.386841   
C65      C      0.653690000000     0.361680000000     0.985370000000     0.386445   
C66      C      0.569850000000     0.361540000000     0.986370000000     0.386629   
C67      C      0.611820000000     0.319690000000     0.986490000000     0.386465   
C68      C      0.611740000000     0.403540000000     0.985500000000     0.386265   
C69      C      0.653500000000     0.361550000000     0.486120000000     0.386661   
C70      C      0.569650000000     0.361580000000     0.487160000000     0.386378   
C71      C      0.611530000000     0.319650000000     0.487320000000     0.386501   
C72      C      0.611630000000     0.403500000000     0.486220000000     0.386534   
C73      C      0.612270000000     0.653770000000     0.985620000000     0.386491   
C74      C      0.611920000000     0.569920000000     0.986360000000     0.386497   
C75      C      0.653990000000     0.611670000000     0.986650000000     0.38648    
C76      C      0.570140000000     0.612030000000     0.985570000000     0.386403   
C77      C      0.611150000000     0.653720000000     0.485240000000     0.386467   
C78      C      0.611560000000     0.569880000000     0.486640000000     0.386812   
C79      C      0.653290000000     0.611970000000     0.486480000000     0.386485   
C80      C      0.569440000000     0.611650000000     0.485670000000     0.38651    
C81      C      0.069830000000     0.361670000000     0.987630000000     0.386686   
C82      C      0.153680000000     0.361770000000     0.987990000000     0.386554   
C83      C      0.111680000000     0.361470000000     0.071610000000     0.386205   
C84      C      0.111810000000     0.361970000000     0.904050000000     0.386657   
C85      C      0.069660000000     0.361730000000     0.487580000000     0.386352   
C86      C      0.153510000000     0.361690000000     0.488040000000     0.386488   
C87      C      0.111530000000     0.362080000000     0.571600000000     0.386368   
C88      C      0.111710000000     0.361340000000     0.404050000000     0.386309   
C89      C      0.903470000000     0.361670000000     0.985100000000     0.386716   
C90      C      0.819620000000     0.361760000000     0.984600000000     0.386402   
C91      C      0.861650000000     0.361450000000     0.901060000000     0.386604   
C92      C      0.861450000000     0.361980000000     0.068610000000     0.386701   
C93      C      0.903280000000     0.361740000000     0.485000000000     0.38641    
C94      C      0.819430000000     0.361710000000     0.484730000000     0.386557   
C95      C      0.861370000000     0.362110000000     0.401060000000     0.386358   
C96      C      0.861280000000     0.361340000000     0.568610000000     0.386363   
C97      C      0.855040000000     0.380010000000     0.686800000000    -0.0682024  
C98      C      0.861400000000     0.361100000000     0.710330000000     0.0238028  
C99      C      0.867600000000     0.342200000000     0.686580000000    -0.0679759  
C100     C      0.867380000000     0.342200000000     0.640610000000     0.0285159  
C101     C      0.861240000000     0.361180000000     0.617270000000    -0.114644   
C102     C      0.855110000000     0.380090000000     0.640870000000     0.0285155  
C103     C      0.861570000000     0.361130000000     0.759350000000     0.0239844  
C104     C      0.867670000000     0.380140000000     0.782810000000    -0.0682289  
C105     C      0.867570000000     0.380280000000     0.828760000000     0.0287055  
C106     C      0.861680000000     0.361310000000     0.852400000000    -0.114791   
C107     C      0.855780000000     0.342240000000     0.829110000000     0.0286794  
C108     C      0.855590000000     0.342180000000     0.783150000000    -0.0682247  
C109     C      0.855440000000     0.381250000000     0.186540000000    -0.0681692  
C110     C      0.861440000000     0.362300000000     0.210330000000     0.0239431  
C111     C      0.867490000000     0.343280000000     0.186840000000    -0.0682651  
C112     C      0.867350000000     0.343150000000     0.140900000000     0.0288203  
C113     C      0.861460000000     0.362110000000     0.117270000000    -0.114812   
C114     C      0.855600000000     0.381200000000     0.140580000000     0.0286119  
C115     C      0.861330000000     0.362340000000     0.259350000000     0.0238806  
C116     C      0.867580000000     0.381240000000     0.283060000000    -0.0680556  
C117     C      0.867420000000     0.381240000000     0.329040000000     0.0285642  
C118     C      0.861300000000     0.362260000000     0.352410000000    -0.114718   
C119     C      0.855140000000     0.343350000000     0.328840000000     0.0285541  
C120     C      0.855010000000     0.343440000000     0.282910000000    -0.068246   
C121     C      0.010510000000     0.342820000000     0.499040000000    -0.0680631  
C122     C      0.998740000000     0.361750000000     0.486470000000     0.0238943  
C123     C      0.010620000000     0.380680000000     0.474320000000    -0.0680733  
C124     C      0.033610000000     0.380720000000     0.474990000000     0.028492   
C125     C      0.045310000000     0.361740000000     0.487270000000    -0.114672   
C126     C      0.033510000000     0.342770000000     0.499160000000     0.0285173  
C127     C      0.974210000000     0.361750000000     0.486040000000     0.0238772  
C128     C      0.962430000000     0.342830000000     0.473460000000    -0.068047   
C129     C      0.939430000000     0.342790000000     0.473360000000     0.0285731  
C130     C      0.927630000000     0.361750000000     0.485280000000    -0.11476    
C131     C      0.939330000000     0.380720000000     0.497560000000     0.0285511  
C132     C      0.962330000000     0.380680000000     0.498210000000    -0.0680685  
C133     C      0.117680000000     0.381220000000     0.786080000000    -0.0681609  
C134     C      0.111650000000     0.362270000000     0.762340000000     0.0239344  
C135     C      0.105630000000     0.343250000000     0.785860000000    -0.0682117  
C136     C      0.105830000000     0.343120000000     0.831810000000     0.0287391  
C137     C      0.111750000000     0.362090000000     0.855400000000    -0.114841   
C138     C      0.117590000000     0.381170000000     0.832050000000     0.028611   
C139     C      0.111690000000     0.362300000000     0.713320000000     0.0238989  
C140     C      0.105410000000     0.381200000000     0.689630000000    -0.0681179  
C141     C      0.105530000000     0.381200000000     0.643660000000     0.028612   
C142     C      0.111620000000     0.362220000000     0.620260000000    -0.114675   
C143     C      0.117800000000     0.343310000000     0.643800000000     0.028546   
C144     C      0.117980000000     0.343400000000     0.689730000000    -0.06826    
C145     C      0.117660000000     0.342210000000     0.189540000000    -0.0681371  
C146     C      0.111660000000     0.361150000000     0.213320000000     0.0239127  
C147     C      0.105590000000     0.380170000000     0.189830000000    -0.0681485  
C148     C      0.105720000000     0.380300000000     0.143880000000     0.0286686  
C149     C      0.111630000000     0.361340000000     0.120260000000    -0.114664   
C150     C      0.117510000000     0.342260000000     0.143580000000     0.0285585  
C151     C      0.111760000000     0.361120000000     0.262340000000     0.0238837  
C152     C      0.105530000000     0.342220000000     0.286040000000    -0.0680338  
C153     C      0.105690000000     0.342220000000     0.332020000000     0.0285937  
C154     C      0.111810000000     0.361190000000     0.355400000000    -0.114747   
C155     C      0.117960000000     0.380100000000     0.331840000000     0.0285751  
C156     C      0.118090000000     0.380020000000     0.285900000000    -0.0682218  
C157     C      0.962620000000     0.380570000000     0.973640000000    -0.0682125  
C158     C      0.974390000000     0.361630000000     0.986170000000     0.0239897  
C159     C      0.962500000000     0.342690000000     0.998280000000    -0.0682336  
C160     C      0.939510000000     0.342660000000     0.997600000000     0.0287588  
C161     C      0.927820000000     0.361640000000     0.985390000000    -0.114824   
C162     C      0.939620000000     0.380620000000     0.973550000000     0.0287606  
C163     C      0.998920000000     0.361630000000     0.986620000000     0.0240133  
C164     C      0.010800000000     0.342690000000     0.974520000000    -0.0682017  
C165     C      0.033790000000     0.342650000000     0.975180000000     0.0288012  
C166     C      0.045490000000     0.361640000000     0.987370000000    -0.11491    
C167     C      0.033690000000     0.380620000000     0.999210000000     0.0287151  
C168     C      0.010690000000     0.380570000000     0.999130000000    -0.0682213  
C169     C      0.712680000000     0.368590000000     0.522650000000    -0.068801   
C170     C      0.724280000000     0.361640000000     0.485210000000     0.023984   
C171     C      0.712480000000     0.354650000000     0.448050000000    -0.0687647  
C172     C      0.689470000000     0.354790000000     0.448190000000     0.0288399  
C173     C      0.677840000000     0.361570000000     0.485780000000    -0.11499    
C174     C      0.689690000000     0.368390000000     0.523080000000     0.0287578  
C175     C      0.748650000000     0.361680000000     0.484940000000     0.0240306  
C176     C      0.760350000000     0.380430000000     0.498380000000    -0.068713   
C177     C      0.783350000000     0.380520000000     0.497930000000     0.0287687  
C178     C      0.795090000000     0.361700000000     0.484730000000    -0.114894   
C179     C      0.783340000000     0.342890000000     0.471590000000     0.0289128  
C180     C      0.760340000000     0.342940000000     0.471340000000    -0.0688641  
C181     C      0.605540000000     0.462630000000     0.448480000000    -0.068044   
C182     C      0.611690000000     0.474420000000     0.486400000000     0.0239138  
C183     C      0.617870000000     0.462550000000     0.524160000000    -0.0682878  
C184     C      0.617740000000     0.439560000000     0.524110000000     0.0286648  
C185     C      0.611710000000     0.427850000000     0.486140000000    -0.114815   
C186     C      0.605700000000     0.439630000000     0.448260000000     0.0286455  
C187     C      0.611700000000     0.498950000000     0.486580000000     0.0238826  
C188     C      0.617860000000     0.510820000000     0.448800000000    -0.0682875  
C189     C      0.617720000000     0.533810000000     0.448830000000     0.0287126  
C190     C      0.611690000000     0.545530000000     0.486790000000    -0.114847   
C191     C      0.605710000000     0.533750000000     0.524700000000     0.0286394  
C192     C      0.605560000000     0.510750000000     0.524510000000    -0.06805    
C193     C      0.760550000000     0.380580000000     0.997890000000    -0.068855   
C194     C      0.748840000000     0.361830000000     0.984450000000     0.0240516  
C195     C      0.760530000000     0.343070000000     0.970970000000    -0.0687541  
C196     C      0.783530000000     0.342980000000     0.971350000000     0.0288401  
C197     C      0.795280000000     0.361790000000     0.984480000000    -0.114879   
C198     C      0.783550000000     0.380630000000     0.997550000000     0.0287934  
C199     C      0.724480000000     0.361820000000     0.984620000000     0.0238135  
C200     C      0.712850000000     0.368790000000     0.022020000000    -0.068699   
C201     C      0.689860000000     0.368580000000     0.022380000000     0.0287815  
C202     C      0.678030000000     0.361740000000     0.985070000000    -0.114922   
C203     C      0.689690000000     0.354950000000     0.947510000000     0.0286939  
C204     C      0.712700000000     0.354810000000     0.947440000000    -0.0686011  
C205     C      0.605610000000     0.462690000000     0.947830000000    -0.0680426  
C206     C      0.611740000000     0.474460000000     0.985780000000     0.0238498  
C207     C      0.617910000000     0.462580000000     0.023530000000    -0.0681736  
C208     C      0.617790000000     0.439590000000     0.023450000000     0.0286571  
C209     C      0.611780000000     0.427890000000     0.985450000000    -0.114769   
C210     C      0.605780000000     0.439680000000     0.947580000000     0.0285798  
C211     C      0.611750000000     0.498990000000     0.985980000000     0.0238377  
C212     C      0.617950000000     0.510870000000     0.948240000000    -0.0682697  
C213     C      0.617880000000     0.533860000000     0.948350000000     0.0286536  
C214     C      0.611900000000     0.545570000000     0.986360000000    -0.114827   
C215     C      0.605850000000     0.533780000000     0.024200000000     0.0286776  
C216     C      0.605630000000     0.510770000000     0.023930000000    -0.067977   
C217     C      0.510290000000     0.605420000000     0.448130000000    -0.0680794  
C218     C      0.498520000000     0.611590000000     0.486070000000     0.0239022  
C219     C      0.510410000000     0.617800000000     0.523790000000    -0.0682906  
C220     C      0.533400000000     0.617680000000     0.523680000000     0.0286622  
C221     C      0.545090000000     0.611650000000     0.485680000000    -0.114801   
C222     C      0.533290000000     0.605600000000     0.447850000000     0.0286475  
C223     C      0.473990000000     0.611620000000     0.486290000000     0.0239426  
C224     C      0.462120000000     0.617800000000     0.448540000000    -0.0683038  
C225     C      0.439130000000     0.617720000000     0.448630000000     0.0286618  
C226     C      0.427420000000     0.611740000000     0.486650000000    -0.114839   
C227     C      0.439210000000     0.605730000000     0.524520000000     0.028668   
C228     C      0.462210000000     0.605520000000     0.524260000000    -0.0680969  
C229     C      0.511100000000     0.618240000000     0.023580000000    -0.0682186  
C230     C      0.499220000000     0.612070000000     0.985830000000     0.0238607  
C231     C      0.511000000000     0.605960000000     0.947870000000    -0.0680748  
C232     C      0.534000000000     0.606140000000     0.947620000000     0.0286327  
C233     C      0.545790000000     0.612130000000     0.985500000000    -0.114865   
C234     C      0.534090000000     0.618130000000     0.023500000000     0.0287298  
C235     C      0.474680000000     0.612040000000     0.986040000000     0.0238341  
C236     C      0.462920000000     0.605880000000     0.023990000000    -0.0679861  
C237     C      0.439910000000     0.606010000000     0.024240000000     0.0286369  
C238     C      0.428110000000     0.612000000000     0.986380000000    -0.114746   
C239     C      0.439800000000     0.618040000000     0.948380000000     0.0285723  
C240     C      0.462790000000     0.618200000000     0.948300000000    -0.0682147  
C241     C      0.260280000000     0.368550000000     0.450460000000    -0.0688539  
C242     C      0.248660000000     0.361620000000     0.487890000000     0.0240024  
C243     C      0.260430000000     0.354660000000     0.525110000000    -0.068702   
C244     C      0.283440000000     0.354790000000     0.525040000000     0.0287966  
C245     C      0.295100000000     0.361540000000     0.487450000000    -0.115059   
C246     C      0.283270000000     0.368340000000     0.450100000000     0.0287956  
C247     C      0.224290000000     0.361660000000     0.488090000000     0.0239678  
C248     C      0.212600000000     0.380410000000     0.474570000000    -0.0687176  
C249     C      0.189600000000     0.380500000000     0.474940000000     0.0287927  
C250     C      0.177850000000     0.361690000000     0.488120000000    -0.114816   
C251     C      0.189580000000     0.342870000000     0.501320000000     0.0287596  
C252     C      0.212580000000     0.342930000000     0.501660000000    -0.0687052  
C253     C      0.462430000000     0.367640000000     0.448660000000    -0.0681049  
C254     C      0.474200000000     0.361540000000     0.486640000000     0.0239515  
C255     C      0.462320000000     0.355370000000     0.524390000000    -0.0683093  
C256     C      0.439320000000     0.355480000000     0.524280000000     0.0286777  
C257     C      0.427630000000     0.361450000000     0.486250000000    -0.114854   
C258     C      0.439420000000     0.367450000000     0.448390000000     0.0286716  
C259     C      0.498730000000     0.361550000000     0.486860000000     0.0238744  
C260     C      0.510620000000     0.355350000000     0.449130000000    -0.0682439  
C261     C      0.533610000000     0.355480000000     0.449220000000     0.0286281  
C262     C      0.545300000000     0.361520000000     0.487210000000    -0.114732   
C263     C      0.533510000000     0.367550000000     0.525050000000     0.028589   
C264     C      0.510500000000     0.367710000000     0.524790000000    -0.0680106  
C265     C      0.355070000000     0.462430000000     0.448720000000    -0.0682717  
C266     C      0.361220000000     0.474350000000     0.486440000000     0.0239067  
C267     C      0.367360000000     0.462610000000     0.524430000000    -0.0680624  
C268     C      0.367220000000     0.439600000000     0.524750000000     0.0286673  
C269     C      0.361240000000     0.427780000000     0.486920000000    -0.114843   
C270     C      0.355220000000     0.439440000000     0.448880000000     0.0286744  
C271     C      0.361170000000     0.498880000000     0.486170000000     0.0239053  
C272     C      0.367300000000     0.510640000000     0.448200000000    -0.0680521  
C273     C      0.367090000000     0.533650000000     0.447900000000     0.0285821  
C274     C      0.361060000000     0.545450000000     0.485740000000    -0.114733   
C275     C      0.355050000000     0.533760000000     0.523750000000     0.02863    
C276     C      0.354960000000     0.510770000000     0.523880000000    -0.0682436  
C277     C      0.212790000000     0.343080000000     0.001510000000    -0.0686623  
C278     C      0.224470000000     0.361830000000     0.987980000000     0.023919   
C279     C      0.212750000000     0.380580000000     0.974530000000    -0.068737   
C280     C      0.189740000000     0.380630000000     0.974920000000     0.0288186  
C281     C      0.178020000000     0.361800000000     0.988050000000    -0.114928   
C282     C      0.189780000000     0.342990000000     0.001200000000     0.0288472  
C283     C      0.248830000000     0.361820000000     0.987750000000     0.0239389  
C284     C      0.260630000000     0.354840000000     0.024930000000    -0.0687001  
C285     C      0.283630000000     0.354980000000     0.024800000000     0.0289347  
C286     C      0.295270000000     0.361740000000     0.987210000000    -0.115014   
C287     C      0.283430000000     0.368550000000     0.949900000000     0.0287692  
C288     C      0.260430000000     0.368770000000     0.950310000000    -0.0688576  
C289     C      0.462600000000     0.367550000000     0.947970000000    -0.0680189  
C290     C      0.474390000000     0.361440000000     0.985920000000     0.0237891  
C291     C      0.462510000000     0.355280000000     0.023690000000    -0.0681426  
C292     C      0.439520000000     0.355400000000     0.023630000000     0.0286511  
C293     C      0.427810000000     0.361400000000     0.985630000000    -0.114772   
C294     C      0.439600000000     0.367380000000     0.947740000000     0.0286014  
C295     C      0.498920000000     0.361460000000     0.986110000000     0.0238815  
C296     C      0.510800000000     0.355280000000     0.948370000000    -0.0682728  
C297     C      0.533790000000     0.355420000000     0.948440000000     0.0286071  
C298     C      0.545490000000     0.361450000000     0.986430000000    -0.114731   
C299     C      0.533700000000     0.367460000000     0.024290000000     0.0286425  
C300     C      0.510690000000     0.367610000000     0.024050000000    -0.0680009  
C301     C      0.367940000000     0.510720000000     0.947840000000    -0.0681152  
C302     C      0.361800000000     0.498960000000     0.985800000000     0.023889   
C303     C      0.355630000000     0.510860000000     0.023540000000    -0.0682629  
C304     C      0.355780000000     0.533850000000     0.023430000000     0.0287631  
C305     C      0.361790000000     0.545540000000     0.985420000000    -0.11485    
C306     C      0.367790000000     0.533730000000     0.947570000000     0.0286437  
C307     C      0.361760000000     0.474430000000     0.986040000000     0.0238084  
C308     C      0.355550000000     0.462540000000     0.948320000000    -0.0682183  
C309     C      0.355620000000     0.439550000000     0.948460000000     0.0286603  
C310     C      0.361610000000     0.427860000000     0.986480000000    -0.114885   
C311     C      0.367660000000     0.439660000000     0.024310000000     0.0287052  
C312     C      0.367880000000     0.462660000000     0.024010000000    -0.0679868  
C313     C      0.591990000000     0.760650000000     0.497460000000    -0.0687766  
C314     C      0.610670000000     0.748870000000     0.483800000000     0.0240437  
C315     C      0.629420000000     0.760490000000     0.470080000000    -0.0689116  
C316     C      0.629590000000     0.783490000000     0.470450000000     0.0288416  
C317     C      0.610870000000     0.795310000000     0.483860000000    -0.114999   
C318     C      0.592020000000     0.783660000000     0.497140000000     0.0288457  
C319     C      0.610640000000     0.724500000000     0.484040000000     0.023897   
C320     C      0.603790000000     0.712910000000     0.521570000000    -0.0687425  
C321     C      0.604110000000     0.689910000000     0.522080000000     0.0286547  
C322     C      0.610940000000     0.678060000000     0.484790000000    -0.114855   
C323     C      0.617580000000     0.689690000000     0.447090000000     0.028751   
C324     C      0.617610000000     0.712690000000     0.446860000000    -0.0686948  
C325     C      0.593650000000     0.760540000000     0.998490000000    -0.0689065  
C326     C      0.612420000000     0.748920000000     0.984870000000     0.0240067  
C327     C      0.631080000000     0.760700000000     0.971110000000    -0.0687259  
C328     C      0.631030000000     0.783710000000     0.971350000000     0.0288228  
C329     C      0.612180000000     0.795360000000     0.984630000000    -0.114989   
C330     C      0.593460000000     0.783530000000     0.998030000000     0.0287608  
C331     C      0.612510000000     0.724550000000     0.985090000000     0.0238769  
C332     C      0.605590000000     0.712930000000     0.022530000000    -0.0687553  
C333     C      0.605690000000     0.689930000000     0.022820000000     0.0288335  
C334     C      0.612380000000     0.678110000000     0.985410000000    -0.115063   
C335     C      0.619170000000     0.689760000000     0.947850000000     0.0287988  
C336     C      0.619410000000     0.712770000000     0.947830000000    -0.0687062  
C337     C      0.630450000000     0.855260000000     0.686450000000    -0.0681651  
C338     C      0.611480000000     0.861440000000     0.710010000000     0.0239223  
C339     C      0.592570000000     0.867590000000     0.686320000000    -0.0682323  
C340     C      0.592570000000     0.867440000000     0.640370000000     0.0285826  
C341     C      0.611570000000     0.861420000000     0.616960000000    -0.114767   
C342     C      0.630530000000     0.855400000000     0.640480000000     0.0285911  
C343     C      0.611440000000     0.861490000000     0.759030000000     0.0238496  
C344     C      0.592480000000     0.855360000000     0.782650000000    -0.0681027  
C345     C      0.592410000000     0.855570000000     0.828620000000     0.0285811  
C346     C      0.611370000000     0.861640000000     0.852080000000    -0.114725   
C347     C      0.630360000000     0.867650000000     0.828610000000     0.0285195  
C348     C      0.630350000000     0.867720000000     0.782670000000    -0.0681514  
C349     C      0.592700000000     0.855480000000     0.186340000000    -0.0683052  
C350     C      0.611600000000     0.861700000000     0.210010000000     0.0239481  
C351     C      0.630570000000     0.867840000000     0.186420000000    -0.068152   
C352     C      0.630660000000     0.867640000000     0.140460000000     0.0286582  
C353     C      0.611700000000     0.861580000000     0.116950000000    -0.114847   
C354     C      0.592710000000     0.855570000000     0.140390000000     0.0286642  
C355     C      0.611540000000     0.861740000000     0.259030000000     0.0238396  
C356     C      0.592560000000     0.867900000000     0.282580000000    -0.0680487  
C357     C      0.592460000000     0.867750000000     0.328540000000     0.0286204  
C358     C      0.611420000000     0.861740000000     0.352090000000    -0.114793   
C359     C      0.630430000000     0.855720000000     0.328690000000     0.0285702  
C360     C      0.630450000000     0.855580000000     0.282750000000    -0.0682206  
C361     C      0.618400000000     0.260670000000     0.525360000000    -0.0686572  
C362     C      0.611370000000     0.248870000000     0.488220000000     0.0239381  
C363     C      0.604380000000     0.260470000000     0.450820000000    -0.0687704  
C364     C      0.604590000000     0.283470000000     0.450400000000     0.0286886  
C365     C      0.611460000000     0.295310000000     0.487670000000    -0.114873   
C366     C      0.618270000000     0.283670000000     0.525240000000     0.0287555  
C367     C      0.611380000000     0.224500000000     0.488430000000     0.0240327  
C368     C      0.630170000000     0.212840000000     0.501840000000    -0.0687853  
C369     C      0.630290000000     0.189840000000     0.501470000000     0.0288559  
C370     C      0.611480000000     0.178060000000     0.488400000000    -0.114888   
C371     C      0.592610000000     0.189760000000     0.475420000000     0.0288579  
C372     C      0.592630000000     0.212770000000     0.475070000000    -0.0687702  
C373     C      0.593220000000     0.010780000000     0.473900000000    -0.0679391  
C374     C      0.612150000000     0.998950000000     0.486290000000     0.023828   
C375     C      0.631020000000     0.010780000000     0.498980000000    -0.0680268  
C376     C      0.630990000000     0.033790000000     0.499060000000     0.0284347  
C377     C      0.612000000000     0.045520000000     0.487030000000    -0.114442   
C378     C      0.593100000000     0.033770000000     0.474560000000     0.0284202  
C379     C      0.612160000000     0.974420000000     0.486090000000     0.0239532  
C380     C      0.593170000000     0.962590000000     0.498070000000    -0.0682246  
C381     C      0.593080000000     0.939610000000     0.497460000000     0.0287237  
C382     C      0.612050000000     0.927850000000     0.485430000000    -0.114752   
C383     C      0.631110000000     0.939580000000     0.473850000000     0.0286027  
C384     C      0.631120000000     0.962590000000     0.473890000000    -0.067982   
C385     C      0.630420000000     0.212810000000     0.001030000000    -0.0687972  
C386     C      0.611680000000     0.224540000000     0.987570000000     0.023995   
C387     C      0.592880000000     0.212880000000     0.974250000000    -0.0688068  
C388     C      0.592750000000     0.189880000000     0.974720000000     0.0289519  
C389     C      0.611550000000     0.178100000000     0.987790000000    -0.11503    
C390     C      0.630420000000     0.189800000000     0.000790000000     0.0289509  
C391     C      0.611760000000     0.248910000000     0.987310000000     0.0239152  
C392     C      0.618790000000     0.260700000000     0.024460000000    -0.0686725  
C393     C      0.618630000000     0.283710000000     0.024350000000     0.0288793  
C394     C      0.611810000000     0.295350000000     0.986800000000    -0.114986   
C395     C      0.604970000000     0.283510000000     0.949510000000     0.0287392  
C396     C      0.604770000000     0.260510000000     0.949900000000    -0.0688407  
C397     C      0.592570000000     0.117910000000     0.785930000000    -0.0681835  
C398     C      0.611500000000     0.111690000000     0.762360000000     0.0238633  
C399     C      0.630430000000     0.105540000000     0.786050000000    -0.0680615  
C400     C      0.630460000000     0.105740000000     0.832010000000     0.0285776  
C401     C      0.611480000000     0.111820000000     0.855420000000    -0.114678   
C402     C      0.592520000000     0.117840000000     0.831880000000     0.0284906  
C403     C      0.611520000000     0.111650000000     0.713340000000     0.023909   
C404     C      0.592590000000     0.105470000000     0.689690000000    -0.0680754  
C405     C      0.592560000000     0.105600000000     0.643720000000     0.0285573  
C406     C      0.611550000000     0.111630000000     0.620290000000    -0.114662   
C407     C      0.630510000000     0.117660000000     0.643790000000     0.0285363  
C408     C      0.630460000000     0.117810000000     0.689740000000    -0.068243   
C409     C      0.630320000000     0.118150000000     0.189530000000    -0.068284   
C410     C      0.611440000000     0.112000000000     0.213340000000     0.0239239  
C411     C      0.592430000000     0.105840000000     0.189890000000    -0.0681024  
C412     C      0.592280000000     0.105960000000     0.143920000000     0.0286308  
C413     C      0.611220000000     0.111950000000     0.120290000000    -0.114893   
C414     C      0.630250000000     0.117980000000     0.143590000000     0.0286705  
C415     C      0.611570000000     0.112030000000     0.262360000000     0.0238583  
C416     C      0.630570000000     0.105880000000     0.285840000000    -0.0680246  
C417     C      0.630730000000     0.106060000000     0.331800000000     0.0285839  
C418     C      0.611800000000     0.112080000000     0.355420000000    -0.114775   
C419     C      0.592770000000     0.118110000000     0.332090000000     0.0285618  
C420     C      0.592700000000     0.118220000000     0.286150000000    -0.0681868  
C421     C      0.591860000000     0.962520000000     0.997640000000    -0.0682095  
C422     C      0.610820000000     0.974460000000     0.985850000000     0.0240334  
C423     C      0.629800000000     0.962750000000     0.973370000000    -0.0682896  
C424     C      0.629900000000     0.939760000000     0.973130000000     0.0287878  
C425     C      0.610930000000     0.927890000000     0.984780000000    -0.11508    
C426     C      0.591880000000     0.939520000000     0.996830000000     0.028773   
C427     C      0.610830000000     0.998990000000     0.986590000000     0.0238149  
C428     C      0.591950000000     0.010940000000     0.974390000000    -0.0679917  
C429     C      0.591980000000     0.033930000000     0.975150000000     0.0285326  
C430     C      0.610970000000     0.045560000000     0.987550000000    -0.114601   
C431     C      0.629880000000     0.033700000000     0.999580000000     0.0283679  
C432     C      0.629760000000     0.010700000000     0.999400000000    -0.0680696  
C433     C      0.212380000000     0.592880000000     0.497790000000    -0.0688239  
C434     C      0.224090000000     0.611650000000     0.484480000000     0.0240132  
C435     C      0.212400000000     0.630420000000     0.471040000000    -0.0687515  
C436     C      0.189400000000     0.630490000000     0.471320000000     0.0288274  
C437     C      0.177650000000     0.611650000000     0.484330000000    -0.114915   
C438     C      0.189380000000     0.592810000000     0.497360000000     0.0289294  
C439     C      0.248450000000     0.611670000000     0.484720000000     0.0239802  
C440     C      0.260050000000     0.604680000000     0.522130000000    -0.068834   
C441     C      0.283050000000     0.604880000000     0.522540000000     0.0288276  
C442     C      0.294890000000     0.611720000000     0.485260000000    -0.115058   
C443     C      0.283260000000     0.618540000000     0.447700000000     0.0288646  
C444     C      0.260250000000     0.618700000000     0.447580000000    -0.0687604  
C445     C      0.213040000000     0.592850000000     0.997650000000    -0.0688871  
C446     C      0.224760000000     0.611610000000     0.984290000000     0.0240394  
C447     C      0.213070000000     0.630380000000     0.970840000000    -0.0687922  
C448     C      0.190070000000     0.630460000000     0.971170000000     0.0288192  
C449     C      0.178310000000     0.611630000000     0.984230000000    -0.114902   
C450     C      0.190040000000     0.592790000000     0.997260000000     0.0288637  
C451     C      0.249120000000     0.611630000000     0.984490000000     0.0238735  
C452     C      0.260730000000     0.604630000000     0.021890000000    -0.0687728  
C453     C      0.283730000000     0.604840000000     0.022280000000     0.0287842  
C454     C      0.295570000000     0.611690000000     0.984990000000    -0.114944   
C455     C      0.283920000000     0.618500000000     0.947430000000     0.0287484  
C456     C      0.260910000000     0.618650000000     0.947340000000    -0.0686637  
C457     C      0.117990000000     0.630490000000     0.782640000000    -0.068236   
C458     C      0.111760000000     0.611580000000     0.759000000000     0.0238825  
C459     C      0.105630000000     0.592620000000     0.782630000000    -0.0680842  
C460     C      0.105860000000     0.592540000000     0.828590000000     0.0286286  
C461     C      0.111930000000     0.611500000000     0.852060000000    -0.114741   
C462     C      0.117930000000     0.630490000000     0.828590000000     0.0285852  
C463     C      0.111670000000     0.611640000000     0.709990000000     0.0238943  
C464     C      0.105480000000     0.630610000000     0.686460000000    -0.0680845  
C465     C      0.105570000000     0.630700000000     0.640490000000     0.0285979  
C466     C      0.111560000000     0.611740000000     0.616930000000    -0.114729   
C467     C      0.117620000000     0.592740000000     0.640310000000     0.0285638  
C468     C      0.117810000000     0.592730000000     0.686250000000    -0.0682643  
C469     C      0.118100000000     0.592850000000     0.186360000000    -0.0682443  
C470     C      0.111840000000     0.611760000000     0.209990000000     0.023866   
C471     C      0.105750000000     0.630720000000     0.186350000000    -0.0680749  
C472     C      0.106030000000     0.630810000000     0.140390000000     0.0286113  
C473     C      0.112110000000     0.611850000000     0.116930000000    -0.114741   
C474     C      0.118090000000     0.592860000000     0.140410000000     0.0285642  
C475     C      0.111690000000     0.611690000000     0.259000000000     0.0239527  
C476     C      0.105460000000     0.592720000000     0.282500000000    -0.0681828  
C477     C      0.105500000000     0.592630000000     0.328460000000     0.0287844  
C478     C      0.111460000000     0.611580000000     0.352060000000    -0.114988   
C479     C      0.117540000000     0.630580000000     0.328720000000     0.0287113  
C480     C      0.117800000000     0.630600000000     0.282770000000    -0.0683757  
C481     C      0.760130000000     0.593080000000     0.474120000000    -0.0687836  
C482     C      0.748440000000     0.611870000000     0.487440000000     0.0239854  
C483     C      0.760160000000     0.630620000000     0.500880000000    -0.0687359  
C484     C      0.783160000000     0.630660000000     0.500580000000     0.0287724  
C485     C      0.794890000000     0.611800000000     0.487570000000    -0.114851   
C486     C      0.783130000000     0.592980000000     0.474540000000     0.0288882  
C487     C      0.724080000000     0.611920000000     0.487220000000     0.0239356  
C488     C      0.712460000000     0.604910000000     0.449840000000    -0.0687459  
C489     C      0.689460000000     0.605110000000     0.449460000000     0.0286752  
C490     C      0.677630000000     0.611980000000     0.486750000000    -0.114887   
C491     C      0.689290000000     0.618820000000     0.524270000000     0.0288006  
C492     C      0.712290000000     0.618970000000     0.524350000000    -0.0687185  
C493     C      0.962240000000     0.630590000000     0.498710000000    -0.0680406  
C494     C      0.974010000000     0.611660000000     0.486140000000     0.0238288  
C495     C      0.962120000000     0.592740000000     0.473970000000    -0.0679521  
C496     C      0.939130000000     0.592700000000     0.474620000000     0.0283927  
C497     C      0.927440000000     0.611680000000     0.486890000000    -0.114453   
C498     C      0.939240000000     0.630640000000     0.498800000000     0.0284584  
C499     C      0.998540000000     0.611660000000     0.485710000000     0.023972   
C500     C      0.010320000000     0.630590000000     0.473200000000    -0.0681472  
C501     C      0.033320000000     0.630630000000     0.473110000000     0.02864    
C502     C      0.045110000000     0.611650000000     0.484960000000    -0.114885   
C503     C      0.033410000000     0.592670000000     0.497160000000     0.0286703  
C504     C      0.010410000000     0.592710000000     0.497820000000    -0.0681923  
C505     C      0.760800000000     0.630340000000     0.001050000000    -0.0688639  
C506     C      0.749130000000     0.611560000000     0.987630000000     0.024046   
C507     C      0.760850000000     0.592800000000     0.974270000000    -0.0688748  
C508     C      0.783850000000     0.592760000000     0.974630000000     0.0290163  
C509     C      0.795570000000     0.611610000000     0.987650000000    -0.115201   
C510     C      0.783800000000     0.630430000000     0.000700000000     0.0290824  
C511     C      0.724770000000     0.611550000000     0.987450000000     0.0238911  
C512     C      0.712980000000     0.618550000000     0.024620000000    -0.06865    
C513     C      0.689980000000     0.618390000000     0.024540000000     0.028886   
C514     C      0.678330000000     0.611600000000     0.986980000000    -0.114982   
C515     C      0.690160000000     0.604760000000     0.949670000000     0.0287305  
C516     C      0.713160000000     0.604560000000     0.950050000000    -0.068828   
C517     C      0.855360000000     0.592770000000     0.785610000000    -0.0682652  
C518     C      0.861500000000     0.611680000000     0.761880000000     0.0238751  
C519     C      0.867700000000     0.630650000000     0.785420000000    -0.0681224  
C520     C      0.867610000000     0.630730000000     0.831390000000     0.0287002  
C521     C      0.861620000000     0.611780000000     0.854940000000    -0.114792   
C522     C      0.855560000000     0.592780000000     0.831560000000     0.028547   
C523     C      0.861420000000     0.611630000000     0.712870000000     0.0239321  
C524     C      0.867530000000     0.592670000000     0.689240000000    -0.0681461  
C525     C      0.867310000000     0.592600000000     0.643270000000     0.0286737  
C526     C      0.861250000000     0.611560000000     0.619810000000    -0.114786   
C527     C      0.855260000000     0.630550000000     0.643290000000     0.0286366  
C528     C      0.855200000000     0.630550000000     0.689230000000    -0.068343   
C529     C      0.855460000000     0.630640000000     0.189090000000    -0.0682397  
C530     C      0.861560000000     0.611740000000     0.212870000000     0.0238664  
C531     C      0.867780000000     0.592760000000     0.189380000000    -0.0679996  
C532     C      0.867750000000     0.592660000000     0.143420000000     0.0285518  
C533     C      0.861790000000     0.611620000000     0.119810000000    -0.114698   
C534     C      0.855710000000     0.630620000000     0.143150000000     0.0285852  
C535     C      0.861410000000     0.611800000000     0.261880000000     0.023884   
C536     C      0.867510000000     0.630770000000     0.285520000000    -0.0681146  
C537     C      0.867220000000     0.630860000000     0.331480000000     0.0286559  
C538     C      0.861120000000     0.611910000000     0.354940000000    -0.114738   
C539     C      0.855140000000     0.592920000000     0.331460000000     0.0285651  
C540     C      0.855140000000     0.592910000000     0.285520000000    -0.0681825  
C541     C      0.010990000000     0.630650000000     0.973190000000    -0.0680835  
C542     C      0.999200000000     0.611720000000     0.985750000000     0.0238882  
C543     C      0.011070000000     0.592790000000     0.997940000000    -0.0681777  
C544     C      0.034060000000     0.592740000000     0.997300000000     0.0285958  
C545     C      0.045770000000     0.611700000000     0.985030000000    -0.114815   
C546     C      0.033990000000     0.630680000000     0.973110000000     0.0285537  
C547     C      0.974670000000     0.611730000000     0.986130000000     0.0239321  
C548     C      0.962890000000     0.630660000000     0.998630000000    -0.0681264  
C549     C      0.939890000000     0.630700000000     0.998700000000     0.0285448  
C550     C      0.928100000000     0.611720000000     0.986850000000    -0.114853   
C551     C      0.939810000000     0.592740000000     0.974640000000     0.0286336  
C552     C      0.962800000000     0.592790000000     0.974000000000    -0.0681253  
C553     C      0.380160000000     0.212720000000     0.498890000000    -0.0688763  
C554     C      0.361400000000     0.224430000000     0.485510000000     0.0240769  
C555     C      0.342630000000     0.212750000000     0.472090000000    -0.0688211  
C556     C      0.342540000000     0.189750000000     0.472440000000     0.0288568  
C557     C      0.361370000000     0.177990000000     0.485500000000    -0.114949   
C558     C      0.380210000000     0.189720000000     0.498530000000     0.0289713  
C559     C      0.361400000000     0.248800000000     0.485660000000     0.0239633  
C560     C      0.368400000000     0.260430000000     0.523020000000    -0.0687881  
C561     C      0.368220000000     0.283430000000     0.523340000000     0.0286932  
C562     C      0.361390000000     0.295240000000     0.486000000000    -0.114905   
C563     C      0.354570000000     0.283570000000     0.448480000000     0.0287811  
C564     C      0.354400000000     0.260560000000     0.448460000000    -0.0687253  
C565     C      0.368460000000     0.260520000000     0.022670000000    -0.068691   
C566     C      0.361440000000     0.248880000000     0.985330000000     0.0238028  
C567     C      0.354420000000     0.260640000000     0.948130000000    -0.068633   
C568     C      0.354610000000     0.283640000000     0.948120000000     0.0287134  
C569     C      0.361460000000     0.295320000000     0.985620000000    -0.114925   
C570     C      0.368300000000     0.283520000000     0.022950000000     0.0287769  
C571     C      0.361420000000     0.224510000000     0.985220000000     0.024162   
C572     C      0.380190000000     0.212800000000     0.998600000000    -0.0689705  
C573     C      0.380230000000     0.189800000000     0.998300000000     0.0289108  
C574     C      0.361370000000     0.178070000000     0.985320000000    -0.115112   
C575     C      0.342550000000     0.189830000000     0.972250000000     0.0290178  
C576     C      0.342640000000     0.212830000000     0.971850000000    -0.0689765  
C577     C      0.342440000000     0.117920000000     0.783850000000    -0.0682375  
C578     C      0.361350000000     0.111730000000     0.760170000000     0.0238795  
C579     C      0.380310000000     0.105560000000     0.783740000000    -0.068053   
C580     C      0.380390000000     0.105710000000     0.829710000000     0.0285865  
C581     C      0.361430000000     0.111750000000     0.853230000000    -0.114788   
C582     C      0.342440000000     0.117790000000     0.829800000000     0.0285747  
C583     C      0.361290000000     0.111750000000     0.711150000000     0.0239148  
C584     C      0.342330000000     0.105610000000     0.687560000000    -0.068136   
C585     C      0.342240000000     0.105790000000     0.641600000000     0.0286633  
C586     C      0.361200000000     0.111820000000     0.618090000000    -0.114839   
C587     C      0.380200000000     0.117830000000     0.641520000000     0.0286149  
C588     C      0.380210000000     0.117940000000     0.687470000000    -0.0682885  
C589     C      0.380310000000     0.105620000000     0.283710000000    -0.0681392  
C590     C      0.361340000000     0.111810000000     0.260170000000     0.0238943  
C591     C      0.342440000000     0.117980000000     0.283890000000    -0.0682671  
C592     C      0.342450000000     0.117810000000     0.329830000000     0.0285944  
C593     C      0.361450000000     0.111750000000     0.353220000000    -0.114893   
C594     C      0.380400000000     0.105740000000     0.329680000000     0.028706   
C595     C      0.361280000000     0.111850000000     0.211150000000     0.0239754  
C596     C      0.380180000000     0.118050000000     0.187470000000    -0.0683326  
C597     C      0.380170000000     0.117950000000     0.141520000000     0.0287086  
C598     C      0.361170000000     0.111950000000     0.118090000000    -0.115026   
C599     C      0.342210000000     0.105920000000     0.141610000000     0.028806   
C600     C      0.342300000000     0.105720000000     0.187570000000    -0.0682643  
C601     C      0.380120000000     0.760500000000     0.474390000000    -0.0687181  
C602     C      0.361350000000     0.748790000000     0.487730000000     0.0239623  
C603     C      0.342590000000     0.760490000000     0.501170000000    -0.0687095  
C604     C      0.342520000000     0.783490000000     0.500880000000     0.0288434  
C605     C      0.361360000000     0.795240000000     0.487850000000    -0.114976   
C606     C      0.380200000000     0.783500000000     0.474810000000     0.0288627  
C607     C      0.361320000000     0.724430000000     0.487510000000     0.0239945  
C608     C      0.368310000000     0.712820000000     0.450110000000    -0.0688325  
C609     C      0.368090000000     0.689820000000     0.449720000000     0.0287659  
C610     C      0.361240000000     0.677990000000     0.487000000000    -0.114918   
C611     C      0.354430000000     0.689640000000     0.524560000000     0.0287975  
C612     C      0.354290000000     0.712640000000     0.524660000000    -0.0687509  
C613     C      0.380260000000     0.962490000000     0.474570000000    -0.068058   
C614     C      0.361330000000     0.974350000000     0.486790000000     0.0238735  
C615     C      0.342400000000     0.962550000000     0.499270000000    -0.0680556  
C616     C      0.342360000000     0.939550000000     0.499240000000     0.0285253  
C617     C      0.361340000000     0.927780000000     0.487310000000    -0.114664   
C618     C      0.380310000000     0.939500000000     0.475120000000     0.0285405  
C619     C      0.361320000000     0.998880000000     0.486510000000     0.023927   
C620     C      0.380260000000     0.010740000000     0.498720000000    -0.0681323  
C621     C      0.380300000000     0.033740000000     0.498190000000     0.0285966  
C622     C      0.361320000000     0.045450000000     0.486000000000    -0.114845   
C623     C      0.342350000000     0.033670000000     0.474070000000     0.0286258  
C624     C      0.342390000000     0.010670000000     0.474040000000    -0.068103   
C625     C      0.368700000000     0.712930000000     0.949890000000    -0.0688062  
C626     C      0.361670000000     0.724510000000     0.987290000000     0.0238585  
C627     C      0.354680000000     0.712700000000     0.024440000000    -0.0685933  
C628     C      0.354890000000     0.689690000000     0.024330000000     0.0288385  
C629     C      0.361740000000     0.678070000000     0.986770000000    -0.11504    
C630     C      0.368560000000     0.689930000000     0.949490000000     0.0287659  
C631     C      0.361630000000     0.748880000000     0.987530000000     0.0240902  
C632     C      0.380370000000     0.760630000000     0.974220000000    -0.0689486  
C633     C      0.380390000000     0.783630000000     0.974670000000     0.0290631  
C634     C      0.361530000000     0.795320000000     0.987740000000    -0.115229   
C635     C      0.342720000000     0.783520000000     0.000730000000     0.029077   
C636     C      0.342840000000     0.760520000000     0.000990000000    -0.068842   
C637     C      0.380270000000     0.855370000000     0.785870000000    -0.0682532  
C638     C      0.361350000000     0.861540000000     0.762190000000     0.0239017  
C639     C      0.342380000000     0.867680000000     0.785770000000    -0.0681504  
C640     C      0.342300000000     0.867510000000     0.831730000000     0.0286476  
C641     C      0.361270000000     0.861500000000     0.855240000000    -0.114748   
C642     C      0.380270000000     0.855490000000     0.831820000000     0.0285396  
C643     C      0.361400000000     0.861550000000     0.713170000000     0.0239026  
C644     C      0.380360000000     0.867720000000     0.689590000000    -0.068114   
C645     C      0.380440000000     0.867570000000     0.643630000000     0.0286831  
C646     C      0.361490000000     0.861530000000     0.620110000000    -0.114808   
C647     C      0.342500000000     0.855480000000     0.643540000000     0.0285565  
C648     C      0.342500000000     0.855350000000     0.689490000000    -0.0682263  
C649     C      0.380240000000     0.855290000000     0.285880000000    -0.0682543  
C650     C      0.361330000000     0.861480000000     0.262190000000     0.0238824  
C651     C      0.342360000000     0.867600000000     0.285760000000    -0.0680578  
C652     C      0.342260000000     0.867420000000     0.331730000000     0.0286012  
C653     C      0.361220000000     0.861390000000     0.355250000000    -0.114802   
C654     C      0.380220000000     0.855390000000     0.331820000000     0.0286255  
C655     C      0.361400000000     0.861510000000     0.213170000000     0.0239365  
C656     C      0.380360000000     0.867710000000     0.189630000000    -0.0681409  
C657     C      0.380460000000     0.867580000000     0.143660000000     0.0286811  
C658     C      0.361510000000     0.861550000000     0.120110000000    -0.114918   
C659     C      0.342510000000     0.855490000000     0.143510000000     0.0286292  
C660     C      0.342500000000     0.855330000000     0.189450000000    -0.0682896  
C661     C      0.380190000000     0.010820000000     0.998890000000    -0.0682018  
C662     C      0.361250000000     0.998960000000     0.986670000000     0.0239105  
C663     C      0.342320000000     0.010750000000     0.974190000000    -0.0681008  
C664     C      0.342280000000     0.033750000000     0.974210000000     0.0285638  
C665     C      0.361260000000     0.045530000000     0.986140000000    -0.114802   
C666     C      0.380230000000     0.033810000000     0.998350000000     0.0285628  
C667     C      0.361260000000     0.974430000000     0.986910000000     0.0239603  
C668     C      0.380210000000     0.962590000000     0.974680000000    -0.0681913  
C669     C      0.380270000000     0.939590000000     0.975200000000     0.0286181  
C670     C      0.361300000000     0.927860000000     0.987370000000    -0.114872   
C671     C      0.342320000000     0.939620000000     0.999310000000     0.0286079  
C672     C      0.342340000000     0.962620000000     0.999360000000    -0.068195   
H1       H      0.872960000000     0.327450000000     0.703440000000     0.047068   
H2       H      0.872340000000     0.327420000000     0.623370000000     0.0343471  
H3       H      0.850100000000     0.394930000000     0.623850000000     0.0339761  
H4       H      0.849730000000     0.394730000000     0.703820000000     0.0469098  
H5       H      0.872790000000     0.394910000000     0.765750000000     0.0470146  
H6       H      0.872390000000     0.395190000000     0.845750000000     0.0340241  
H7       H      0.851000000000     0.327400000000     0.846380000000     0.0339623  
H8       H      0.850420000000     0.327350000000     0.766340000000     0.0469735  
H9       H      0.872620000000     0.328510000000     0.203890000000     0.0470218  
H10      H      0.872150000000     0.328230000000     0.123910000000     0.0340201  
H11      H      0.850820000000     0.396040000000     0.123320000000     0.0339702  
H12      H      0.850310000000     0.396090000000     0.203360000000     0.0469721  
H13      H      0.872920000000     0.395980000000     0.266170000000     0.0471133  
H14      H      0.872410000000     0.396020000000     0.346250000000     0.0343005  
H15      H      0.850140000000     0.328520000000     0.345890000000     0.0339764  
H16      H      0.849670000000     0.328720000000     0.265930000000     0.0469172  
H17      H      0.002180000000     0.395440000000     0.463670000000     0.0470267  
H18      H      0.042220000000     0.395550000000     0.465300000000     0.0343714  
H19      H      0.042030000000     0.327930000000     0.509120000000     0.0343452  
H20      H      0.001980000000     0.328060000000     0.509400000000     0.0470315  
H21      H      0.970950000000     0.328060000000     0.463080000000     0.0470021  
H22      H      0.930900000000     0.327950000000     0.463390000000     0.0343318  
H23      H      0.930730000000     0.395560000000     0.507270000000     0.0343464  
H24      H      0.970770000000     0.395440000000     0.508870000000     0.0470174  
H25      H      0.100460000000     0.328480000000     0.768850000000     0.0469987  
H26      H      0.101050000000     0.328210000000     0.848830000000     0.0340277  
H27      H      0.122390000000     0.396010000000     0.849280000000     0.03396    
H28      H      0.122790000000     0.396060000000     0.769230000000     0.0469614  
H29      H      0.100100000000     0.395940000000     0.706540000000     0.0471397  
H30      H      0.100530000000     0.395990000000     0.626460000000     0.0342854  
H31      H      0.122780000000     0.328480000000     0.626730000000     0.0339834  
H32      H      0.123340000000     0.328680000000     0.706680000000     0.0469225  
H33      H      0.100440000000     0.394940000000     0.206870000000     0.0469866  
H34      H      0.100920000000     0.395210000000     0.126880000000     0.0340581  
H35      H      0.122310000000     0.327420000000     0.126330000000     0.0340032  
H36      H      0.122820000000     0.327380000000     0.206370000000     0.0469527  
H37      H      0.100190000000     0.327470000000     0.269150000000     0.0470862  
H38      H      0.100710000000     0.327430000000     0.349220000000     0.0343245  
H39      H      0.122950000000     0.394940000000     0.348890000000     0.0339722  
H40      H      0.123420000000     0.394750000000     0.268920000000     0.0469045  
H41      H      0.970930000000     0.327920000000     0.008910000000     0.0471052  
H42      H      0.930890000000     0.327820000000     0.007270000000     0.0340936  
H43      H      0.931090000000     0.395470000000     0.963630000000     0.0340228  
H44      H      0.971140000000     0.395330000000     0.963310000000     0.0470743  
H45      H      0.002370000000     0.327920000000     0.963910000000     0.0470451  
H46      H      0.042410000000     0.327810000000     0.965520000000     0.0340192  
H47      H      0.042210000000     0.395470000000     0.009110000000     0.0340901  
H48      H      0.002170000000     0.395340000000     0.009460000000     0.0471145  
H49      H      0.721050000000     0.349340000000     0.418680000000     0.048008   
H50      H      0.680810000000     0.349390000000     0.418990000000     0.0342245  
H51      H      0.681200000000     0.373770000000     0.552500000000     0.0338275  
H52      H      0.721420000000     0.373930000000     0.551820000000     0.0478543  
H53      H      0.751690000000     0.395130000000     0.508760000000     0.0478925  
H54      H      0.791930000000     0.395240000000     0.508360000000     0.0339017  
H55      H      0.791920000000     0.328170000000     0.461110000000     0.03381    
H56      H      0.751680000000     0.328230000000     0.461090000000     0.0478923  
H57      H      0.623110000000     0.470980000000     0.553720000000     0.0469579  
H58      H      0.622630000000     0.430960000000     0.553740000000     0.033997   
H59      H      0.600800000000     0.431080000000     0.418570000000     0.0342379  
H60      H      0.600300000000     0.471150000000     0.419010000000     0.0470482  
H61      H      0.623100000000     0.502380000000     0.419250000000     0.0469579  
H62      H      0.622600000000     0.542400000000     0.419170000000     0.0339968  
H63      H      0.600820000000     0.542310000000     0.554380000000     0.034243   
H64      H      0.600330000000     0.502240000000     0.553990000000     0.0470583  
H65      H      0.751860000000     0.328350000000     0.960730000000     0.0478303  
H66      H      0.792100000000     0.328240000000     0.960960000000     0.033839   
H67      H      0.792140000000     0.395360000000     0.007970000000     0.0339603  
H68      H      0.751900000000     0.395300000000     0.008160000000     0.0479933  
H69      H      0.721570000000     0.374140000000     0.051200000000     0.0478659  
H70      H      0.681350000000     0.373970000000     0.051770000000     0.0338333  
H71      H      0.681050000000     0.349530000000     0.918310000000     0.0342505  
H72      H      0.721300000000     0.349480000000     0.918100000000     0.0479444  
H73      H      0.623150000000     0.471010000000     0.053100000000     0.0469356  
H74      H      0.622690000000     0.430990000000     0.053070000000     0.0340153  
H75      H      0.600890000000     0.431140000000     0.917880000000     0.0342459  
H76      H      0.600370000000     0.471210000000     0.918370000000     0.0470523  
H77      H      0.623180000000     0.502440000000     0.918670000000     0.0469505  
H78      H      0.622800000000     0.542460000000     0.918730000000     0.0339981  
H79      H      0.600980000000     0.542320000000     0.053920000000     0.0342558  
H80      H      0.600370000000     0.502250000000     0.053380000000     0.0470483  
H81      H      0.501990000000     0.623050000000     0.553350000000     0.0469759  
H82      H      0.542010000000     0.622610000000     0.553270000000     0.0340179  
H83      H      0.541830000000     0.600700000000     0.418150000000     0.0342351  
H84      H      0.501760000000     0.600160000000     0.418700000000     0.0470732  
H85      H      0.470550000000     0.623010000000     0.418960000000     0.0469764  
H86      H      0.430530000000     0.622620000000     0.419010000000     0.0340215  
H87      H      0.430670000000     0.600870000000     0.554230000000     0.0342362  
H88      H      0.470730000000     0.600280000000     0.553720000000     0.0470699  
H89      H      0.502480000000     0.600720000000     0.918410000000     0.0470593  
H90      H      0.542540000000     0.601260000000     0.917920000000     0.0342373  
H91      H      0.542690000000     0.623010000000     0.053140000000     0.0339656  
H92      H      0.502670000000     0.623460000000     0.053160000000     0.0469413  
H93      H      0.471450000000     0.600650000000     0.053440000000     0.0470627  
H94      H      0.431380000000     0.601110000000     0.053940000000     0.0342528  
H95      H      0.431190000000     0.622930000000     0.918760000000     0.0340135  
H96      H      0.471210000000     0.623460000000     0.918730000000     0.0469124  
H97      H      0.251830000000     0.349360000000     0.554470000000     0.0479686  
H98      H      0.292080000000     0.349410000000     0.554270000000     0.0342251  
H99      H      0.291780000000     0.373700000000     0.420700000000     0.0338304  
H100     H      0.251560000000     0.373870000000     0.421260000000     0.0478886  
H101     H      0.221260000000     0.395110000000     0.464220000000     0.0479095  
H102     H      0.181030000000     0.395220000000     0.464460000000     0.0338911  
H103     H      0.181000000000     0.328160000000     0.511790000000     0.0338426  
H104     H      0.221240000000     0.328220000000     0.511970000000     0.047825   
H105     H      0.470740000000     0.350160000000     0.553980000000     0.0469706  
H106     H      0.430720000000     0.350590000000     0.553910000000     0.0339842  
H107     H      0.430890000000     0.372310000000     0.418670000000     0.0342403  
H108     H      0.470950000000     0.372870000000     0.419200000000     0.0470842  
H109     H      0.502200000000     0.350090000000     0.419570000000     0.0469476  
H110     H      0.542210000000     0.350560000000     0.419610000000     0.0340107  
H111     H      0.542040000000     0.372460000000     0.554740000000     0.0342406  
H112     H      0.501970000000     0.372970000000     0.554230000000     0.0470421  
H113     H      0.372580000000     0.471160000000     0.553870000000     0.0470621  
H114     H      0.372110000000     0.431090000000     0.554490000000     0.0342322  
H115     H      0.350340000000     0.430810000000     0.419280000000     0.0339954  
H116     H      0.349830000000     0.470830000000     0.419120000000     0.0469487  
H117     H      0.372560000000     0.502110000000     0.418770000000     0.0470653  
H118     H      0.371980000000     0.542180000000     0.418190000000     0.034248   
H119     H      0.350130000000     0.542370000000     0.553350000000     0.0340093  
H120     H      0.349730000000     0.502350000000     0.553470000000     0.0469367  
H121     H      0.221390000000     0.395290000000     0.964190000000     0.0479206  
H122     H      0.181150000000     0.395350000000     0.964490000000     0.0338947  
H123     H      0.181220000000     0.328250000000     0.011630000000     0.0338686  
H124     H      0.221460000000     0.328370000000     0.011770000000     0.0478497  
H125     H      0.252040000000     0.349530000000     0.054290000000     0.0479945  
H126     H      0.292290000000     0.349570000000     0.054010000000     0.0341964  
H127     H      0.291930000000     0.373930000000     0.920490000000     0.03382    
H128     H      0.251700000000     0.374100000000     0.921140000000     0.0479051  
H129     H      0.470950000000     0.350060000000     0.053260000000     0.0469284  
H130     H      0.430930000000     0.350520000000     0.053270000000     0.034009   
H131     H      0.431050000000     0.372260000000     0.918040000000     0.0342478  
H132     H      0.471120000000     0.372780000000     0.918500000000     0.047045   
H133     H      0.502380000000     0.350020000000     0.918810000000     0.0469474  
H134     H      0.542400000000     0.350520000000     0.918820000000     0.0340069  
H135     H      0.542240000000     0.372370000000     0.053980000000     0.034254   
H136     H      0.502170000000     0.372860000000     0.053500000000     0.0470641  
H137     H      0.350390000000     0.502450000000     0.053120000000     0.0469732  
H138     H      0.350880000000     0.542460000000     0.053050000000     0.0339977  
H139     H      0.372680000000     0.542260000000     0.917850000000     0.0342312  
H140     H      0.373160000000     0.502190000000     0.918390000000     0.0470878  
H141     H      0.350330000000     0.470970000000     0.918730000000     0.0469231  
H142     H      0.350700000000     0.430940000000     0.918860000000     0.0339982  
H143     H      0.372530000000     0.431130000000     0.054030000000     0.0342526  
H144     H      0.373150000000     0.471190000000     0.053440000000     0.0470528  
H145     H      0.644070000000     0.751780000000     0.459660000000     0.0478514  
H146     H      0.644340000000     0.791990000000     0.459890000000     0.0338026  
H147     H      0.577370000000     0.792300000000     0.507770000000     0.0341416  
H148     H      0.577290000000     0.752050000000     0.507950000000     0.0480258  
H149     H      0.598490000000     0.721660000000     0.550750000000     0.0478756  
H150     H      0.598830000000     0.681430000000     0.551560000000     0.033867   
H151     H      0.622980000000     0.681030000000     0.417890000000     0.0342473  
H152     H      0.622850000000     0.721270000000     0.417440000000     0.0479557  
H153     H      0.645800000000     0.752090000000     0.960710000000     0.0479086  
H154     H      0.645680000000     0.792360000000     0.960720000000     0.0341092  
H155     H      0.578710000000     0.792030000000     0.008580000000     0.0339421  
H156     H      0.579010000000     0.751820000000     0.008980000000     0.0479434  
H157     H      0.600320000000     0.721650000000     0.051770000000     0.0478479  
H158     H      0.600310000000     0.681430000000     0.052230000000     0.033847   
H159     H      0.624480000000     0.681110000000     0.918570000000     0.0342243  
H160     H      0.624700000000     0.721360000000     0.918460000000     0.0479931  
H161     H      0.577790000000     0.872850000000     0.703200000000     0.0469988  
H162     H      0.577740000000     0.872340000000     0.623210000000     0.0340253  
H163     H      0.645380000000     0.850500000000     0.623400000000     0.0343082  
H164     H      0.645200000000     0.850030000000     0.703440000000     0.0470192  
H165     H      0.577730000000     0.850080000000     0.765700000000     0.0469844  
H166     H      0.577560000000     0.850690000000     0.845740000000     0.0343062  
H167     H      0.645190000000     0.872580000000     0.845730000000     0.0340405  
H168     H      0.645130000000     0.872950000000     0.765740000000     0.0469718  
H169     H      0.645310000000     0.873110000000     0.203400000000     0.0470867  
H170     H      0.645510000000     0.872530000000     0.123350000000     0.0343043  
H171     H      0.577880000000     0.850640000000     0.123250000000     0.0339438  
H172     H      0.577920000000     0.850240000000     0.203240000000     0.0469526  
H173     H      0.577810000000     0.873130000000     0.265560000000     0.0470396  
H174     H      0.577600000000     0.872640000000     0.345610000000     0.0342845  
H175     H      0.645260000000     0.850830000000     0.345870000000     0.0339717  
H176     H      0.645240000000     0.850340000000     0.265880000000     0.0469179  
H177     H      0.599010000000     0.251740000000     0.421670000000     0.0478754  
H178     H      0.599190000000     0.291970000000     0.421010000000     0.0338453  
H179     H      0.623710000000     0.292330000000     0.554410000000     0.0342351  
H180     H      0.623750000000     0.252080000000     0.554700000000     0.0479537  
H181     H      0.644880000000     0.221530000000     0.512030000000     0.0478668  
H182     H      0.645050000000     0.181290000000     0.511800000000     0.03385    
H183     H      0.577880000000     0.181160000000     0.465040000000     0.03385    
H184     H      0.577890000000     0.221400000000     0.464840000000     0.0479174  
H185     H      0.645780000000     0.002310000000     0.509490000000     0.0470844  
H186     H      0.645780000000     0.042370000000     0.509150000000     0.0343567  
H187     H      0.578260000000     0.042330000000     0.464720000000     0.0343411  
H188     H      0.578500000000     0.002300000000     0.463100000000     0.0469494  
H189     H      0.578390000000     0.971060000000     0.508510000000     0.0469695  
H190     H      0.578180000000     0.931050000000     0.506960000000     0.0340211  
H191     H      0.645950000000     0.931000000000     0.464120000000     0.0342924  
H192     H      0.645940000000     0.971080000000     0.463720000000     0.0470417  
H193     H      0.578180000000     0.221570000000     0.963980000000     0.0479254  
H194     H      0.577980000000     0.181340000000     0.964400000000     0.0338591  
H195     H      0.645140000000     0.181190000000     0.011180000000     0.0337938  
H196     H      0.645160000000     0.221440000000     0.011200000000     0.0478991  
H197     H      0.624120000000     0.252110000000     0.053800000000     0.047996   
H198     H      0.624060000000     0.292360000000     0.053540000000     0.0342168  
H199     H      0.599560000000     0.292010000000     0.920130000000     0.0338357  
H200     H      0.599410000000     0.251780000000     0.920750000000     0.0478944  
H201     H      0.645200000000     0.100260000000     0.769160000000     0.0470383  
H202     H      0.645290000000     0.100840000000     0.849180000000     0.0343793  
H203     H      0.577670000000     0.122780000000     0.848950000000     0.033982   
H204     H      0.577810000000     0.123150000000     0.768940000000     0.0469078  
H205     H      0.577820000000     0.100230000000     0.706620000000     0.0470512  
H206     H      0.577730000000     0.100690000000     0.626570000000     0.0343707  
H207     H      0.645360000000     0.122570000000     0.626700000000     0.0339994  
H208     H      0.645220000000     0.123070000000     0.706690000000     0.0469314  
H209     H      0.577700000000     0.100620000000     0.206970000000     0.0470742  
H210     H      0.577410000000     0.101060000000     0.126910000000     0.0342741  
H211     H      0.645060000000     0.122870000000     0.126350000000     0.0339768  
H212     H      0.645130000000     0.123400000000     0.206320000000     0.046935   
H213     H      0.645300000000     0.100620000000     0.268780000000     0.0470311  
H214     H      0.645600000000     0.101150000000     0.348820000000     0.0343118  
H215     H      0.577960000000     0.123020000000     0.349320000000     0.033992   
H216     H      0.577890000000     0.123470000000     0.269340000000     0.0468995  
H217     H      0.644570000000     0.971320000000     0.963220000000     0.0469887  
H218     H      0.644790000000     0.931290000000     0.963310000000     0.033989   
H219     H      0.577040000000     0.930850000000     0.006310000000     0.0343028  
H220     H      0.577050000000     0.970910000000     0.008170000000     0.0471508  
H221     H      0.577180000000     0.002550000000     0.963590000000     0.0470135  
H222     H      0.577190000000     0.042600000000     0.965370000000     0.034341   
H223     H      0.644720000000     0.042170000000     0.009670000000     0.0343866  
H224     H      0.644480000000     0.002130000000     0.009840000000     0.0470688  
H225     H      0.221070000000     0.645150000000     0.460880000000     0.0478423  
H226     H      0.180830000000     0.645230000000     0.460960000000     0.0338181  
H227     H      0.180800000000     0.578060000000     0.507690000000     0.0338448  
H228     H      0.221030000000     0.578160000000     0.508040000000     0.04795    
H229     H      0.251310000000     0.599320000000     0.551280000000     0.0478832  
H230     H      0.291540000000     0.599460000000     0.551930000000     0.0338068  
H231     H      0.291920000000     0.623970000000     0.418520000000     0.0342059  
H232     H      0.251670000000     0.624040000000     0.418240000000     0.0480096  
H233     H      0.221740000000     0.645100000000     0.960650000000     0.047858   
H234     H      0.181500000000     0.645200000000     0.960810000000     0.0338233  
H235     H      0.181460000000     0.578050000000     0.007630000000     0.0339207  
H236     H      0.221690000000     0.578130000000     0.007900000000     0.0480113  
H237     H      0.252010000000     0.599280000000     0.051050000000     0.0479066  
H238     H      0.292230000000     0.599430000000     0.051660000000     0.0338256  
H239     H      0.292570000000     0.623940000000     0.918240000000     0.0342333  
H240     H      0.252320000000     0.623990000000     0.918000000000     0.0479649  
H241     H      0.100350000000     0.577870000000     0.765680000000     0.0470661  
H242     H      0.100980000000     0.577690000000     0.845720000000     0.0343249  
H243     H      0.122880000000     0.645330000000     0.845710000000     0.0339864  
H244     H      0.123220000000     0.645270000000     0.765720000000     0.0469247  
H245     H      0.100260000000     0.645360000000     0.703480000000     0.0470592  
H246     H      0.100650000000     0.645560000000     0.623440000000     0.0343364  
H247     H      0.122500000000     0.577910000000     0.623110000000     0.0339874  
H248     H      0.123080000000     0.577950000000     0.703100000000     0.0469588  
H249     H      0.100450000000     0.645470000000     0.203280000000     0.0470479  
H250     H      0.101160000000     0.645660000000     0.123250000000     0.0343451  
H251     H      0.123040000000     0.578030000000     0.123300000000     0.0339748  
H252     H      0.123300000000     0.578070000000     0.203300000000     0.0469383  
H253     H      0.100270000000     0.577970000000     0.265440000000     0.0470721  
H254     H      0.100560000000     0.577770000000     0.345490000000     0.0342534  
H255     H      0.122410000000     0.645410000000     0.345930000000     0.0339547  
H256     H      0.123090000000     0.645380000000     0.265960000000     0.0469823  
H257     H      0.751510000000     0.645360000000     0.511040000000     0.0478263  
H258     H      0.791750000000     0.645390000000     0.510940000000     0.0338402  
H259     H      0.791690000000     0.578220000000     0.464210000000     0.0338652  
H260     H      0.751460000000     0.578370000000     0.463880000000     0.0479414  
H261     H      0.721190000000     0.599530000000     0.420690000000     0.047853   
H262     H      0.680960000000     0.599670000000     0.420100000000     0.0338495  
H263     H      0.680640000000     0.624270000000     0.553450000000     0.0342109  
H264     H      0.720880000000     0.624330000000     0.553670000000     0.0479771  
H265     H      0.970550000000     0.577970000000     0.463300000000     0.0469689  
H266     H      0.930520000000     0.577870000000     0.464920000000     0.034373   
H267     H      0.930710000000     0.645480000000     0.508760000000     0.0343605  
H268     H      0.970760000000     0.645350000000     0.509080000000     0.0470262  
H269     H      0.001800000000     0.645360000000     0.462870000000     0.0470492  
H270     H      0.041850000000     0.645470000000     0.463200000000     0.0342947  
H271     H      0.042010000000     0.577820000000     0.506820000000     0.0343013  
H272     H      0.001970000000     0.577950000000     0.508430000000     0.0470741  
H273     H      0.752210000000     0.578070000000     0.964030000000     0.0479468  
H274     H      0.792440000000     0.578030000000     0.964270000000     0.0338186  
H275     H      0.792370000000     0.645190000000     0.011040000000     0.033784   
H276     H      0.752120000000     0.645050000000     0.011240000000     0.0479278  
H277     H      0.721570000000     0.623890000000     0.053960000000     0.047982   
H278     H      0.681330000000     0.623820000000     0.053730000000     0.034208   
H279     H      0.681650000000     0.599360000000     0.920290000000     0.0338304  
H280     H      0.721880000000     0.599220000000     0.920880000000     0.0479037  
H281     H      0.872920000000     0.645400000000     0.768400000000     0.0470638  
H282     H      0.872540000000     0.645590000000     0.848440000000     0.0343109  
H283     H      0.850680000000     0.577950000000     0.848750000000     0.0339617  
H284     H      0.850090000000     0.577990000000     0.768760000000     0.0469361  
H285     H      0.872810000000     0.577920000000     0.706180000000     0.0470644  
H286     H      0.872180000000     0.577750000000     0.626140000000     0.0343064  
H287     H      0.850320000000     0.645390000000     0.626180000000     0.0339574  
H288     H      0.849980000000     0.645320000000     0.706160000000     0.0469759  
H289     H      0.872980000000     0.578010000000     0.206450000000     0.0470401  
H290     H      0.872680000000     0.577800000000     0.126390000000     0.0343613  
H291     H      0.850840000000     0.645450000000     0.125930000000     0.0340081  
H292     H      0.850170000000     0.645430000000     0.205900000000     0.0469252  
H293     H      0.872820000000     0.645510000000     0.268580000000     0.0470694  
H294     H      0.872090000000     0.645720000000     0.348610000000     0.0343311  
H295     H      0.850180000000     0.578090000000     0.348570000000     0.0339928  
H296     H      0.849930000000     0.578120000000     0.268580000000     0.0469106  
H297     H      0.002630000000     0.578030000000     0.008600000000     0.0470991  
H298     H      0.042660000000     0.577900000000     0.007020000000     0.0343697  
H299     H      0.042530000000     0.645510000000     0.963160000000     0.0343139  
H300     H      0.002470000000     0.645410000000     0.962810000000     0.0470217  
H301     H      0.971410000000     0.645440000000     0.008960000000     0.0470652  
H302     H      0.931350000000     0.645540000000     0.008610000000     0.0343715  
H303     H      0.931210000000     0.577890000000     0.964970000000     0.0343107  
H304     H      0.971240000000     0.578020000000     0.963390000000     0.0470191  
H305     H      0.327910000000     0.221420000000     0.461890000000     0.0478682  
H306     H      0.327790000000     0.181180000000     0.462090000000     0.033808   
H307     H      0.394950000000     0.181130000000     0.508890000000     0.0338457  
H308     H      0.394880000000     0.221370000000     0.509130000000     0.0479663  
H309     H      0.373750000000     0.251720000000     0.552210000000     0.0478689  
H310     H      0.373630000000     0.291950000000     0.552690000000     0.0338344  
H311     H      0.349150000000     0.292200000000     0.419260000000     0.0342278  
H312     H      0.349050000000     0.251960000000     0.419150000000     0.0480014  
H313     H      0.349060000000     0.252020000000     0.918840000000     0.0479574  
H314     H      0.349190000000     0.292270000000     0.918910000000     0.0342315  
H315     H      0.373730000000     0.292040000000     0.052290000000     0.0338439  
H316     H      0.373810000000     0.251810000000     0.051860000000     0.0478642  
H317     H      0.394920000000     0.221440000000     0.008810000000     0.0480384  
H318     H      0.394960000000     0.181210000000     0.008670000000     0.0339081  
H319     H      0.327790000000     0.181260000000     0.961940000000     0.0337625  
H320     H      0.327930000000     0.221500000000     0.961640000000     0.0479184  
H321     H      0.395060000000     0.100300000000     0.766750000000     0.047032   
H322     H      0.395240000000     0.100800000000     0.846800000000     0.0343206  
H323     H      0.327610000000     0.122710000000     0.846950000000     0.0339876  
H324     H      0.327660000000     0.123180000000     0.766970000000     0.0469212  
H325     H      0.327580000000     0.100360000000     0.704540000000     0.0470696  
H326     H      0.327390000000     0.100900000000     0.624500000000     0.0343237  
H327     H      0.395040000000     0.122740000000     0.624380000000     0.0339597  
H328     H      0.394990000000     0.123170000000     0.704370000000     0.0469574  
H329     H      0.327660000000     0.123250000000     0.267030000000     0.0469392  
H330     H      0.327630000000     0.122710000000     0.347010000000     0.0339818  
H331     H      0.395250000000     0.100820000000     0.346740000000     0.0342807  
H332     H      0.395050000000     0.100380000000     0.266690000000     0.0470778  
H333     H      0.394970000000     0.123270000000     0.204360000000     0.0469605  
H334     H      0.395000000000     0.122870000000     0.124370000000     0.0339423  
H335     H      0.327350000000     0.101030000000     0.124510000000     0.0342937  
H336     H      0.327560000000     0.100470000000     0.204550000000     0.0471345  
H337     H      0.327860000000     0.751820000000     0.511350000000     0.0478221  
H338     H      0.327780000000     0.792070000000     0.511240000000     0.0338282  
H339     H      0.394940000000     0.792080000000     0.464470000000     0.0338843  
H340     H      0.394840000000     0.751840000000     0.464140000000     0.0479216  
H341     H      0.373680000000     0.721540000000     0.420950000000     0.0478924  
H342     H      0.373500000000     0.681320000000     0.420340000000     0.0338212  
H343     H      0.348990000000     0.680990000000     0.553740000000     0.0342176  
H344     H      0.348950000000     0.721230000000     0.553990000000     0.0480029  
H345     H      0.327630000000     0.971050000000     0.509670000000     0.0470172  
H346     H      0.327520000000     0.931000000000     0.509140000000     0.0343296  
H347     H      0.395150000000     0.930910000000     0.465390000000     0.0343186  
H348     H      0.395030000000     0.970940000000     0.463980000000     0.0469925  
H349     H      0.395020000000     0.002290000000     0.509310000000     0.0470408  
H350     H      0.395140000000     0.042330000000     0.507910000000     0.0343144  
H351     H      0.327510000000     0.042220000000     0.464180000000     0.0343007  
H352     H      0.327620000000     0.002160000000     0.463650000000     0.0470248  
H353     H      0.349300000000     0.721270000000     0.053780000000     0.0479563  
H354     H      0.349480000000     0.681020000000     0.053510000000     0.0342299  
H355     H      0.374000000000     0.681450000000     0.920100000000     0.0338138  
H356     H      0.374040000000     0.721680000000     0.920740000000     0.0478632  
H357     H      0.395110000000     0.752020000000     0.963960000000     0.0479587  
H358     H      0.395120000000     0.792250000000     0.964350000000     0.0337916  
H359     H      0.327950000000     0.792060000000     0.011100000000     0.0337717  
H360     H      0.328130000000     0.751820000000     0.011150000000     0.0478859  
H361     H      0.327630000000     0.872920000000     0.768790000000     0.047081   
H362     H      0.327440000000     0.872400000000     0.848830000000     0.0343173  
H363     H      0.395100000000     0.850590000000     0.848970000000     0.03397    
H364     H      0.395050000000     0.850140000000     0.768970000000     0.0469439  
H365     H      0.395110000000     0.872980000000     0.706570000000     0.0470514  
H366     H      0.395290000000     0.872480000000     0.626530000000     0.0342964  
H367     H      0.327670000000     0.850560000000     0.626390000000     0.0339903  
H368     H      0.327720000000     0.850090000000     0.706380000000     0.0469123  
H369     H      0.327610000000     0.872860000000     0.268770000000     0.0470381  
H370     H      0.327400000000     0.872300000000     0.348810000000     0.0343433  
H371     H      0.395060000000     0.850480000000     0.348980000000     0.0339687  
H372     H      0.395030000000     0.850060000000     0.268990000000     0.0469321  
H373     H      0.395100000000     0.872960000000     0.206640000000     0.0470812  
H374     H      0.395310000000     0.872500000000     0.126600000000     0.0342923  
H375     H      0.327690000000     0.850570000000     0.126330000000     0.033987   
H376     H      0.327720000000     0.850060000000     0.206310000000     0.0469472  
H377     H      0.327550000000     0.002250000000     0.963790000000     0.0470187  
H378     H      0.327440000000     0.042300000000     0.964310000000     0.0342983  
H379     H      0.395070000000     0.042410000000     0.008070000000     0.0343817  
H380     H      0.394950000000     0.002370000000     0.009490000000     0.0471245  
H381     H      0.394960000000     0.971050000000     0.964100000000     0.0470848  
H382     H      0.395110000000     0.931010000000     0.965460000000     0.0343287  
H383     H      0.327480000000     0.931060000000     0.009190000000     0.0343434  
H384     H      0.327560000000     0.971110000000     0.009760000000     0.0470927  
Ni1      Ni     0.341750000000     0.861550000000     0.987870000000     0.994336   
Ni2      Ni     0.381040000000     0.861610000000     0.987490000000     0.994986   
Ni3      Ni     0.341710000000     0.861490000000     0.487880000000     0.994347   
Ni4      Ni     0.380990000000     0.861500000000     0.487480000000     0.994448   
Ni5      Ni     0.341660000000     0.111830000000     0.985460000000     0.994555   
Ni6      Ni     0.380950000000     0.111800000000     0.985850000000     0.994872   
Ni7      Ni     0.341690000000     0.111740000000     0.485470000000     0.994816   
Ni8      Ni     0.380980000000     0.111730000000     0.485850000000     0.994421   
Ni9      Ni     0.861810000000     0.631330000000     0.987540000000     0.994383   
Ni10     Ni     0.861840000000     0.592040000000     0.987210000000     0.99464    
Ni11     Ni     0.861170000000     0.631380000000     0.487600000000     0.994042   
Ni12     Ni     0.861140000000     0.592100000000     0.487150000000     0.994389   
Ni13     Ni     0.112060000000     0.631320000000     0.984270000000     0.994261   
Ni14     Ni     0.112040000000     0.592030000000     0.984720000000     0.994384   
Ni15     Ni     0.111390000000     0.631300000000     0.484330000000     0.994468   
Ni16     Ni     0.111390000000     0.592010000000     0.484660000000     0.994894   
Ni17     Ni     0.630940000000     0.111760000000     0.988050000000     0.994888   
Ni18     Ni     0.591650000000     0.111930000000     0.987660000000     0.994206   
Ni19     Ni     0.631360000000     0.111880000000     0.488040000000     0.993912   
Ni20     Ni     0.592080000000     0.111730000000     0.487650000000     0.994693   
Ni21     Ni     0.631190000000     0.861860000000     0.984300000000     0.994556   
Ni22     Ni     0.591900000000     0.861380000000     0.984740000000     0.994699   
Ni23     Ni     0.631130000000     0.861340000000     0.484360000000     0.994379   
Ni24     Ni     0.591840000000     0.861800000000     0.484690000000     0.994869   
Ni25     Ni     0.361710000000     0.361460000000     0.025480000000     0.994392   
Ni26     Ni     0.361360000000     0.361710000000     0.946980000000     0.994585   
Ni27     Ni     0.361500000000     0.361370000000     0.525910000000     0.995018   
Ni28     Ni     0.361200000000     0.361630000000     0.447410000000     0.994329   
Ni29     Ni     0.361990000000     0.611970000000     0.946630000000     0.994256   
Ni30     Ni     0.361670000000     0.611650000000     0.025130000000     0.994729   
Ni31     Ni     0.361310000000     0.611880000000     0.446910000000     0.99467    
Ni32     Ni     0.360990000000     0.611570000000     0.525410000000     0.994651   
Ni33     Ni     0.611930000000     0.361770000000     0.025180000000     0.994676   
Ni34     Ni     0.611610000000     0.361450000000     0.946680000000     0.994532   
Ni35     Ni     0.611740000000     0.361740000000     0.525960000000     0.994271   
Ni36     Ni     0.611410000000     0.361400000000     0.447460000000     0.99499    
Ni37     Ni     0.611900000000     0.611970000000     0.025300000000     0.994964   
Ni38     Ni     0.612240000000     0.611710000000     0.946800000000     0.99448    
Ni39     Ni     0.611230000000     0.612010000000     0.525260000000     0.994217   
Ni40     Ni     0.611510000000     0.611590000000     0.446760000000     0.994995   
Ni41     Ni     0.111780000000     0.342070000000     0.987620000000     0.994586   
Ni42     Ni     0.111740000000     0.381360000000     0.988040000000     0.994543   
Ni43     Ni     0.111580000000     0.342070000000     0.488250000000     0.994587   
Ni44     Ni     0.111600000000     0.381350000000     0.487410000000     0.994524   
Ni45     Ni     0.861520000000     0.342070000000     0.985070000000     0.994711   
Ni46     Ni     0.861570000000     0.381360000000     0.984610000000     0.994494   
Ni47     Ni     0.861360000000     0.342080000000     0.484410000000     0.994711   
Ni48     Ni     0.861340000000     0.381370000000     0.485270000000     0.994736   
O1       O      0.343010000000     0.893070000000     0.988370000000    -0.438212   
O2       O      0.343110000000     0.830030000000     0.987610000000    -0.43819    
O3       O      0.343140000000     0.861280000000     0.050770000000    -0.438937   
O4       O      0.342970000000     0.861810000000     0.924830000000    -0.437409   
O5       O      0.379650000000     0.861280000000     0.924590000000    -0.438976   
O6       O      0.379810000000     0.861920000000     0.050530000000    -0.437647   
O7       O      0.379790000000     0.830100000000     0.987870000000    -0.438485   
O8       O      0.379680000000     0.893120000000     0.986850000000    -0.438407   
O9       O      0.343010000000     0.893010000000     0.488330000000    -0.438238   
O10      O      0.343010000000     0.829980000000     0.487660000000    -0.438064   
O11      O      0.343100000000     0.861250000000     0.550780000000    -0.438801   
O12      O      0.342920000000     0.861730000000     0.424830000000    -0.437292   
O13      O      0.379600000000     0.861160000000     0.424590000000    -0.438967   
O14      O      0.379780000000     0.861840000000     0.550530000000    -0.43746    
O15      O      0.379700000000     0.829980000000     0.487910000000    -0.438046   
O16      O      0.379680000000     0.893010000000     0.486800000000    -0.438279   
O17      O      0.342940000000     0.080310000000     0.985060000000    -0.438105   
O18      O      0.342990000000     0.143340000000     0.985620000000    -0.438383   
O19      O      0.343050000000     0.112050000000     0.922560000000    -0.438836   
O20      O      0.342880000000     0.111610000000     0.048510000000    -0.437531   
O21      O      0.379550000000     0.112170000000     0.048750000000    -0.439019   
O22      O      0.379730000000     0.111430000000     0.922810000000    -0.437608   
O23      O      0.379670000000     0.143310000000     0.985370000000    -0.438498   
O24      O      0.379610000000     0.080290000000     0.986590000000    -0.438332   
O25      O      0.342990000000     0.080220000000     0.484990000000    -0.438222   
O26      O      0.343000000000     0.143250000000     0.485700000000    -0.438238   
O27      O      0.343080000000     0.111990000000     0.422570000000    -0.439051   
O28      O      0.342910000000     0.111490000000     0.548510000000    -0.437594   
O29      O      0.379590000000     0.112060000000     0.548750000000    -0.438796   
O30      O      0.379750000000     0.111400000000     0.422800000000    -0.437594   
O31      O      0.379690000000     0.143240000000     0.485440000000    -0.438252   
O32      O      0.379660000000     0.080210000000     0.486510000000    -0.43814    
O33      O      0.893330000000     0.630040000000     0.987960000000    -0.438255   
O34      O      0.830290000000     0.630000000000     0.987370000000    -0.438091   
O35      O      0.861580000000     0.629960000000     0.050440000000    -0.438954   
O36      O      0.862030000000     0.630090000000     0.924500000000    -0.437525   
O37      O      0.861470000000     0.593410000000     0.924310000000    -0.438894   
O38      O      0.862190000000     0.593280000000     0.050260000000    -0.437292   
O39      O      0.830330000000     0.593310000000     0.987680000000    -0.438128   
O40      O      0.893350000000     0.593370000000     0.986490000000    -0.438453   
O41      O      0.892690000000     0.630050000000     0.488040000000    -0.437926   
O42      O      0.829650000000     0.630120000000     0.487390000000    -0.437933   
O43      O      0.860940000000     0.629970000000     0.550500000000    -0.438874   
O44      O      0.861410000000     0.630190000000     0.424550000000    -0.437329   
O45      O      0.860790000000     0.593510000000     0.424260000000    -0.438906   
O46      O      0.861490000000     0.593290000000     0.550200000000    -0.437412   
O47      O      0.829620000000     0.593430000000     0.487600000000    -0.438049   
O48      O      0.892650000000     0.593370000000     0.486450000000    -0.438149   
O49      O      0.080540000000     0.630030000000     0.983860000000    -0.438153   
O50      O      0.143580000000     0.630000000000     0.984450000000    -0.438106   
O51      O      0.112280000000     0.629910000000     0.921370000000    -0.438764   
O52      O      0.111840000000     0.630120000000     0.047320000000    -0.4375     
O53      O      0.112400000000     0.593440000000     0.047620000000    -0.438741   
O54      O      0.111680000000     0.593230000000     0.921670000000    -0.437529   
O55      O      0.143560000000     0.593310000000     0.984240000000    -0.43812    
O56      O      0.080530000000     0.593360000000     0.985450000000    -0.438285   
O57      O      0.079870000000     0.629990000000     0.483880000000    -0.438144   
O58      O      0.142910000000     0.630000000000     0.484540000000    -0.438125   
O59      O      0.111640000000     0.629930000000     0.421430000000    -0.439111   
O60      O      0.111160000000     0.630060000000     0.547370000000    -0.437521   
O61      O      0.111740000000     0.593380000000     0.547560000000    -0.438917   
O62      O      0.111060000000     0.593260000000     0.421620000000    -0.437683   
O63      O      0.142900000000     0.593310000000     0.484230000000    -0.438161   
O64      O      0.079880000000     0.593320000000     0.485350000000    -0.438453   
O65      O      0.629480000000     0.080240000000     0.988610000000    -0.437915   
O66      O      0.629780000000     0.143280000000     0.987730000000    -0.438099   
O67      O      0.629550000000     0.112060000000     0.050930000000    -0.439323   
O68      O      0.629730000000     0.111470000000     0.925030000000    -0.437672   
O69      O      0.593050000000     0.112210000000     0.924740000000    -0.438654   
O70      O      0.592880000000     0.111640000000     0.050720000000    -0.437368   
O71      O      0.593090000000     0.143430000000     0.987990000000    -0.438384   
O72      O      0.592800000000     0.080410000000     0.987070000000    -0.438052   
O73      O      0.630200000000     0.080360000000     0.488320000000    -0.437959   
O74      O      0.629940000000     0.143390000000     0.488000000000    -0.438185   
O75      O      0.629970000000     0.112030000000     0.550960000000    -0.438532   
O76      O      0.630140000000     0.111720000000     0.424980000000    -0.437264   
O77      O      0.593460000000     0.112170000000     0.424770000000    -0.439077   
O78      O      0.593290000000     0.111300000000     0.550680000000    -0.437496   
O79      O      0.593250000000     0.143250000000     0.488270000000    -0.438119   
O80      O      0.593520000000     0.080220000000     0.486780000000    -0.438115   
O81      O      0.629550000000     0.893330000000     0.984270000000    -0.439017   
O82      O      0.630220000000     0.830300000000     0.984100000000    -0.437518   
O83      O      0.629780000000     0.861940000000     0.921400000000    -0.438916   
O84      O      0.629990000000     0.861870000000     0.047350000000    -0.437401   
O85      O      0.593310000000     0.861330000000     0.047630000000    -0.438945   
O86      O      0.593100000000     0.861330000000     0.921690000000    -0.437475   
O87      O      0.593540000000     0.829910000000     0.984870000000    -0.439014   
O88      O      0.592880000000     0.892940000000     0.984870000000    -0.437729   
O89      O      0.630140000000     0.892910000000     0.484570000000    -0.43723    
O90      O      0.629510000000     0.829870000000     0.483900000000    -0.438853   
O91      O      0.629770000000     0.861450000000     0.421460000000    -0.438828   
O92      O      0.629890000000     0.861150000000     0.547400000000    -0.437528   
O93      O      0.593210000000     0.861740000000     0.547590000000    -0.438965   
O94      O      0.593090000000     0.861960000000     0.421640000000    -0.437521   
O95      O      0.592830000000     0.830250000000     0.484570000000    -0.437692   
O96      O      0.593460000000     0.893270000000     0.485060000000    -0.439042   
O97      O      0.361750000000     0.329960000000     0.022590000000    -0.438321   
O98      O      0.361790000000     0.393030000000     0.023100000000    -0.43714    
O99      O      0.330170000000     0.361420000000     0.023340000000    -0.437712   
O100     O      0.393170000000     0.361380000000     0.022480000000    -0.439097   
O101     O      0.392930000000     0.361660000000     0.949180000000    -0.437163   
O102     O      0.329870000000     0.361870000000     0.950040000000    -0.438385   
O103     O      0.361400000000     0.393170000000     0.949810000000    -0.439314   
O104     O      0.361200000000     0.330170000000     0.949290000000    -0.437722   
O105     O      0.361610000000     0.329880000000     0.523000000000    -0.43864    
O106     O      0.361510000000     0.392940000000     0.523540000000    -0.437187   
O107     O      0.329970000000     0.361260000000     0.523680000000    -0.437994   
O108     O      0.392960000000     0.361360000000     0.523000000000    -0.439366   
O109     O      0.392780000000     0.361650000000     0.449710000000    -0.437032   
O110     O      0.329710000000     0.361730000000     0.450380000000    -0.438481   
O111     O      0.361180000000     0.393090000000     0.450250000000    -0.439242   
O112     O      0.361110000000     0.330090000000     0.449700000000    -0.437744   
O113     O      0.362050000000     0.643470000000     0.949650000000    -0.43843    
O114     O      0.362040000000     0.580400000000     0.948890000000    -0.437149   
O115     O      0.330450000000     0.612030000000     0.948810000000    -0.437794   
O116     O      0.393450000000     0.612040000000     0.949580000000    -0.4391     
O117     O      0.393240000000     0.611690000000     0.022880000000    -0.437005   
O118     O      0.330170000000     0.611510000000     0.022110000000    -0.438379   
O119     O      0.361690000000     0.580200000000     0.022190000000    -0.439347   
O120     O      0.361520000000     0.643190000000     0.022940000000    -0.437916   
O121     O      0.361440000000     0.643370000000     0.449900000000    -0.438462   
O122     O      0.361300000000     0.580310000000     0.449190000000    -0.437096   
O123     O      0.329770000000     0.612000000000     0.449090000000    -0.437986   
O124     O      0.392770000000     0.611880000000     0.449860000000    -0.439357   
O125     O      0.392560000000     0.611540000000     0.523150000000    -0.437333   
O126     O      0.329490000000     0.611490000000     0.522380000000    -0.438515   
O127     O      0.360950000000     0.580120000000     0.522490000000    -0.439337   
O128     O      0.360910000000     0.643110000000     0.523200000000    -0.437729   
O129     O      0.643420000000     0.361910000000     0.022170000000    -0.438432   
O130     O      0.580360000000     0.361740000000     0.022920000000    -0.437271   
O131     O      0.612080000000     0.330230000000     0.022990000000    -0.437747   
O132     O      0.611910000000     0.393230000000     0.022240000000    -0.439107   
O133     O      0.611560000000     0.393020000000     0.948940000000    -0.437069   
O134     O      0.611550000000     0.329960000000     0.949690000000    -0.438481   
O135     O      0.580150000000     0.361390000000     0.949630000000    -0.439316   
O136     O      0.643150000000     0.361390000000     0.948870000000    -0.437793   
O137     O      0.643240000000     0.361820000000     0.522920000000    -0.438411   
O138     O      0.580170000000     0.361780000000     0.523710000000    -0.437099   
O139     O      0.611810000000     0.330200000000     0.523810000000    -0.437779   
O140     O      0.611790000000     0.393200000000     0.522970000000    -0.439161   
O141     O      0.611430000000     0.392970000000     0.449680000000    -0.437235   
O142     O      0.611280000000     0.329910000000     0.450510000000    -0.43852    
O143     O      0.579960000000     0.361400000000     0.450410000000    -0.439293   
O144     O      0.642950000000     0.361270000000     0.449630000000    -0.437898   
O145     O      0.611940000000     0.643470000000     0.022380000000    -0.438417   
O146     O      0.611760000000     0.580410000000     0.022950000000    -0.437265   
O147     O      0.643440000000     0.611950000000     0.023140000000    -0.437817   
O148     O      0.580450000000     0.612120000000     0.022320000000    -0.439245   
O149     O      0.580670000000     0.611820000000     0.949030000000    -0.437138   
O150     O      0.643730000000     0.611480000000     0.949840000000    -0.438466   
O151     O      0.612130000000     0.580250000000     0.949650000000    -0.43925    
O152     O      0.612480000000     0.643250000000     0.949090000000    -0.437746   
O153     O      0.610980000000     0.643500000000     0.522100000000    -0.438339   
O154     O      0.611350000000     0.580430000000     0.523150000000    -0.437126   
O155     O      0.642770000000     0.612240000000     0.523000000000    -0.437767   
O156     O      0.579770000000     0.611890000000     0.522390000000    -0.439128   
O157     O      0.579940000000     0.611450000000     0.449100000000    -0.437224   
O158     O      0.643000000000     0.611630000000     0.449700000000    -0.438542   
O159     O      0.611670000000     0.580140000000     0.449860000000    -0.439537   
O160     O      0.611460000000     0.643130000000     0.448800000000    -0.437936   
O161     O      0.080270000000     0.343340000000     0.987340000000    -0.43828    
O162     O      0.143300000000     0.343410000000     0.987930000000    -0.438066   
O163     O      0.111770000000     0.343180000000     0.050600000000    -0.438007   
O164     O      0.111790000000     0.343570000000     0.924660000000    -0.438212   
O165     O      0.111830000000     0.380250000000     0.925050000000    -0.438216   
O166     O      0.111630000000     0.379870000000     0.051000000000    -0.43804    
O167     O      0.143250000000     0.380100000000     0.987960000000    -0.438289   
O168     O      0.080220000000     0.380020000000     0.988060000000    -0.43816    
O169     O      0.080070000000     0.343390000000     0.488630000000    -0.438164   
O170     O      0.143100000000     0.343350000000     0.488060000000    -0.438079   
O171     O      0.111810000000     0.343650000000     0.551120000000    -0.438904   
O172     O      0.111370000000     0.343090000000     0.425190000000    -0.437388   
O173     O      0.111980000000     0.379770000000     0.424530000000    -0.438759   
O174     O      0.111240000000     0.380330000000     0.550470000000    -0.437444   
O175     O      0.143110000000     0.380040000000     0.487910000000    -0.438148   
O176     O      0.080090000000     0.380060000000     0.486680000000    -0.438195   
O177     O      0.893040000000     0.343340000000     0.985390000000    -0.438227   
O178     O      0.830010000000     0.343410000000     0.984690000000    -0.438236   
O179     O      0.861560000000     0.343170000000     0.922080000000    -0.438175   
O180     O      0.861490000000     0.343580000000     0.048020000000    -0.438346   
O181     O      0.861440000000     0.380260000000     0.047600000000    -0.438178   
O182     O      0.861690000000     0.379850000000     0.921650000000    -0.438234   
O183     O      0.830050000000     0.380100000000     0.984630000000    -0.437942   
O184     O      0.893080000000     0.380020000000     0.984640000000    -0.438348   
O185     O      0.892870000000     0.343400000000     0.483950000000    -0.438193   
O186     O      0.829840000000     0.343370000000     0.484670000000    -0.438129   
O187     O      0.861090000000     0.343680000000     0.421530000000    -0.438866   
O188     O      0.861610000000     0.343090000000     0.547460000000    -0.437475   
O189     O      0.861000000000     0.379770000000     0.548150000000    -0.438889   
O190     O      0.861670000000     0.380360000000     0.422210000000    -0.437399   
O191     O      0.829830000000     0.380060000000     0.484840000000    -0.438215   
O192     O      0.892850000000     0.380070000000     0.485930000000    -0.438246   


