data_structure

_audit_creation_method RASPA-1.0
_audit_creation_date 2023-5-22
_audit_author_name 'Poobodin Mano'

_cell_length_a    45.5638
_cell_length_b    45.5638
_cell_length_c    45.5637
_cell_angle_alpha 89.9992
_cell_angle_beta  89.9994
_cell_angle_gamma 89.9994
_cell_volume      94593

_symmetry_cell_setting          triclinic
_symmetry_space_group_name_Hall 'P 1'
_symmetry_space_group_name_H-M  'P 1'
_symmetry_Int_Tables_number     1

_symmetry_equiv_pos_as_xyz 'x,y,z'

loop_
_atom_site_label
_atom_site_type_symbol
_atom_site_fract_x
_atom_site_fract_y
_atom_site_fract_z
_atom_site_charge
C1       C      0.597830000000     0.320100000000     0.986950000000     0.384745   
C2       C      0.709660000000     0.320140000000     0.986380000000     0.384472   
C3       C      0.653730000000     0.264220000000     0.987020000000     0.384553   
C4       C      0.653780000000     0.376040000000     0.986450000000     0.384881   
C5       C      0.375940000000     0.319820000000     0.986470000000     0.38476    
C6       C      0.264110000000     0.319860000000     0.987080000000     0.384465   
C7       C      0.320030000000     0.263930000000     0.986410000000     0.384745   
C8       C      0.320000000000     0.375760000000     0.987000000000     0.384828   
C9       C      0.597890000000     0.653850000000     0.986480000000     0.38481    
C10      C      0.709720000000     0.653850000000     0.987110000000     0.384327   
C11      C      0.653770000000     0.709770000000     0.986440000000     0.384639   
C12      C      0.653850000000     0.597940000000     0.987000000000     0.384841   
C13      C      0.375990000000     0.653610000000     0.987020000000     0.384861   
C14      C      0.264170000000     0.653530000000     0.986500000000     0.384796   
C15      C      0.320070000000     0.709480000000     0.987130000000     0.384712   
C16      C      0.320070000000     0.597650000000     0.986530000000     0.384751   
C17      C      0.653650000000     0.986480000000     0.597700000000     0.384794   
C18      C      0.653640000000     0.987110000000     0.709530000000     0.384641   
C19      C      0.709560000000     0.986430000000     0.653590000000     0.384771   
C20      C      0.597730000000     0.987020000000     0.653650000000     0.384738   
C21      C      0.319860000000     0.986970000000     0.597760000000     0.384754   
C22      C      0.319970000000     0.986360000000     0.709590000000     0.384786   
C23      C      0.264010000000     0.987010000000     0.653700000000     0.384475   
C24      C      0.375840000000     0.986470000000     0.653670000000     0.384766   
C25      C      0.319770000000     0.986500000000     0.375870000000     0.384726   
C26      C      0.319800000000     0.987080000000     0.264040000000     0.38473    
C27      C      0.263880000000     0.986450000000     0.319970000000     0.384853   
C28      C      0.375700000000     0.986990000000     0.319920000000     0.38474    
C29      C      0.653520000000     0.987030000000     0.375810000000     0.384784   
C30      C      0.653520000000     0.986540000000     0.263980000000     0.384764   
C31      C      0.709430000000     0.987180000000     0.319930000000     0.384752   
C32      C      0.597600000000     0.986530000000     0.319840000000     0.384851   
C33      C      0.987090000000     0.653590000000     0.597920000000     0.384837   
C34      C      0.986560000000     0.653530000000     0.709750000000     0.384403   
C35      C      0.987160000000     0.709460000000     0.653830000000     0.384871   
C36      C      0.986620000000     0.597640000000     0.653850000000     0.384844   
C37      C      0.986620000000     0.319830000000     0.597740000000     0.384876   
C38      C      0.987210000000     0.319830000000     0.709570000000     0.384511   
C39      C      0.986540000000     0.263920000000     0.653620000000     0.384819   
C40      C      0.987150000000     0.375740000000     0.653710000000     0.384875   
C41      C      0.986550000000     0.653790000000     0.376030000000     0.384809   
C42      C      0.987140000000     0.653800000000     0.264200000000     0.384754   
C43      C      0.986450000000     0.709700000000     0.320150000000     0.384847   
C44      C      0.987100000000     0.597880000000     0.320060000000     0.384782   
C45      C      0.987100000000     0.320010000000     0.375850000000     0.384755   
C46      C      0.986500000000     0.320120000000     0.264020000000     0.384807   
C47      C      0.987130000000     0.264160000000     0.319920000000     0.384845   
C48      C      0.986610000000     0.375990000000     0.319950000000     0.384756   
C49      C      0.986430000000     0.320320000000     0.042700000000     0.385727   
C50      C      0.987340000000     0.320240000000     0.930890000000     0.385782   
C51      C      0.042790000000     0.320250000000     0.987250000000     0.385481   
C52      C      0.930980000000     0.320310000000     0.986340000000     0.385706   
C53      C      0.986520000000     0.653390000000     0.931070000000     0.386133   
C54      C      0.987360000000     0.653460000000     0.042880000000     0.385784   
C55      C      0.931030000000     0.653470000000     0.987390000000     0.385628   
C56      C      0.042850000000     0.653390000000     0.986540000000     0.385779   
C57      C      0.987110000000     0.042840000000     0.320250000000     0.385405   
C58      C      0.986200000000     0.931030000000     0.320320000000     0.38609    
C59      C      0.042550000000     0.986470000000     0.320280000000     0.385564   
C60      C      0.930740000000     0.987390000000     0.320280000000     0.385676   
C61      C      0.930880000000     0.986270000000     0.653410000000     0.385816   
C62      C      0.042690000000     0.987110000000     0.653450000000     0.385536   
C63      C      0.987210000000     0.930780000000     0.653470000000     0.385649   
C64      C      0.986360000000     0.042600000000     0.653410000000     0.385674   
C65      C      0.653410000000     0.931080000000     0.986330000000     0.385948   
C66      C      0.653410000000     0.042900000000     0.987170000000     0.385737   
C67      C      0.653410000000     0.987410000000     0.930840000000     0.385931   
C68      C      0.653400000000     0.986570000000     0.042660000000     0.385472   
C69      C      0.320250000000     0.042610000000     0.986350000000     0.385793   
C70      C      0.320250000000     0.930800000000     0.987270000000     0.385734   
C71      C      0.320220000000     0.987160000000     0.042720000000     0.385801   
C72      C      0.320270000000     0.986240000000     0.930910000000     0.38601    
C73      C      0.978000000000     0.121690000000     0.345030000000    -0.0690898  
C74      C      0.987520000000     0.137250000000     0.320190000000     0.0247819  
C75      C      0.996990000000     0.121590000000     0.295380000000    -0.0706893  
C76      C      0.996660000000     0.090910000000     0.295310000000     0.0268988  
C77      C      0.987310000000     0.075300000000     0.320240000000    -0.114205   
C78      C      0.978120000000     0.091010000000     0.345150000000     0.0284446  
C79      C      0.987460000000     0.169750000000     0.320120000000     0.0216066  
C80      C      0.962400000000     0.185300000000     0.329070000000    -0.0683076  
C81      C      0.962220000000     0.215970000000     0.328780000000     0.0285296  
C82      C      0.987270000000     0.231690000000     0.319980000000    -0.116168   
C83      C      0.012420000000     0.216090000000     0.311260000000     0.0302001  
C84      C      0.012430000000     0.185410000000     0.311090000000    -0.0666808  
C85      C      0.976550000000     0.295550000000     0.121480000000    -0.0691555  
C86      C      0.986030000000     0.320370000000     0.137110000000     0.0248539  
C87      C      0.995560000000     0.345190000000     0.121520000000    -0.0707966  
C88      C      0.995430000000     0.345270000000     0.090850000000     0.0270682  
C89      C      0.986220000000     0.320350000000     0.075170000000    -0.114317   
C90      C      0.976870000000     0.295450000000     0.090810000000     0.0285447  
C91      C      0.986110000000     0.320320000000     0.169610000000     0.0215382  
C92      C      0.961140000000     0.311320000000     0.185290000000    -0.068183   
C93      C      0.961160000000     0.311490000000     0.215980000000     0.0285634  
C94      C      0.986330000000     0.320200000000     0.231560000000    -0.11623    
C95      C      0.011370000000     0.328990000000     0.215820000000     0.0300869  
C96      C      0.011170000000     0.329270000000     0.185150000000    -0.0666545  
C97      C      0.961490000000     0.454870000000     0.328170000000    -0.0680311  
C98      C      0.986820000000     0.470570000000     0.320000000000     0.0224157  
C99      C      0.012010000000     0.454730000000     0.311750000000    -0.0666406  
C100     C      0.011960000000     0.424070000000     0.311900000000     0.0302334  
C101     C      0.986590000000     0.408460000000     0.319900000000    -0.116269   
C102     C      0.961320000000     0.424180000000     0.327920000000     0.0286815  
C103     C      0.986940000000     0.503290000000     0.320000000000     0.0223672  
C104     C      0.961740000000     0.519130000000     0.311770000000    -0.0682107  
C105     C      0.961790000000     0.549790000000     0.311940000000     0.028687   
C106     C      0.987140000000     0.565400000000     0.319970000000    -0.116157   
C107     C      0.012420000000     0.549680000000     0.327980000000     0.0302003  
C108     C      0.012270000000     0.519000000000     0.328190000000    -0.0664138  
C109     C      0.961040000000     0.788410000000     0.311310000000    -0.068203   
C110     C      0.985980000000     0.804110000000     0.320330000000     0.0215211  
C111     C      0.011060000000     0.788600000000     0.329290000000    -0.0667967  
C112     C      0.011280000000     0.757930000000     0.329010000000     0.0300984  
C113     C      0.986260000000     0.742170000000     0.320220000000    -0.116186   
C114     C      0.961080000000     0.757730000000     0.311490000000     0.0285198  
C115     C      0.985880000000     0.836610000000     0.320370000000     0.0248203  
C116     C      0.976390000000     0.852230000000     0.295550000000    -0.0693127  
C117     C      0.976690000000     0.882910000000     0.295450000000     0.0285562  
C118     C      0.986010000000     0.898560000000     0.320350000000    -0.114725   
C119     C      0.995220000000     0.882880000000     0.345280000000     0.0270288  
C120     C      0.995380000000     0.852210000000     0.345200000000    -0.0709186  
C121     C      0.997150000000     0.678320000000     0.121640000000    -0.0707377  
C122     C      0.987670000000     0.653520000000     0.137290000000     0.0248364  
C123     C      0.978160000000     0.628680000000     0.121720000000    -0.0691573  
C124     C      0.978320000000     0.628560000000     0.091050000000     0.0285323  
C125     C      0.987540000000     0.653470000000     0.075340000000    -0.114387   
C126     C      0.996870000000     0.678390000000     0.090960000000     0.026996   
C127     C      0.987570000000     0.653600000000     0.169790000000     0.0215249  
C128     C      0.012520000000     0.662630000000     0.185480000000    -0.0665508  
C129     C      0.012490000000     0.662460000000     0.216160000000     0.0300915  
C130     C      0.987320000000     0.653730000000     0.231730000000    -0.116137   
C131     C      0.962290000000     0.644940000000     0.215990000000     0.0285388  
C132     C      0.962500000000     0.644640000000     0.185320000000    -0.0683004  
C133     C      0.012250000000     0.328100000000     0.454730000000    -0.0663212  
C134     C      0.986920000000     0.319920000000     0.470440000000     0.0222983  
C135     C      0.961720000000     0.311710000000     0.454590000000    -0.0680848  
C136     C      0.961760000000     0.311900000000     0.423930000000     0.0285708  
C137     C      0.987130000000     0.319910000000     0.408330000000    -0.116099   
C138     C      0.012410000000     0.327900000000     0.424050000000     0.0301478  
C139     C      0.986800000000     0.319890000000     0.503150000000     0.0224173  
C140     C      0.011990000000     0.311630000000     0.518990000000    -0.0666864  
C141     C      0.011940000000     0.311770000000     0.549650000000     0.0303413  
C142     C      0.986590000000     0.319780000000     0.565270000000    -0.116342   
C143     C      0.961320000000     0.327820000000     0.549550000000     0.0287133  
C144     C      0.961470000000     0.328070000000     0.518870000000    -0.0680413  
C145     C      0.997170000000     0.295350000000     0.852140000000    -0.0708688  
C146     C      0.987710000000     0.320160000000     0.836480000000     0.0247844  
C147     C      0.978210000000     0.345010000000     0.852040000000    -0.0692186  
C148     C      0.978350000000     0.345140000000     0.882710000000     0.0284396  
C149     C      0.987540000000     0.320220000000     0.898430000000    -0.114651   
C150     C      0.996860000000     0.295290000000     0.882820000000     0.0269805  
C151     C      0.987620000000     0.320070000000     0.803980000000     0.0214962  
C152     C      0.012570000000     0.311030000000     0.788300000000    -0.0666183  
C153     C      0.012540000000     0.311180000000     0.757620000000     0.0301126  
C154     C      0.987380000000     0.319910000000     0.742030000000    -0.116153   
C155     C      0.962350000000     0.328720000000     0.757770000000     0.0284989  
C156     C      0.962550000000     0.329020000000     0.788440000000    -0.0683094  
C157     C      0.995540000000     0.121420000000     0.628550000000    -0.0706398  
C158     C      0.986030000000     0.137010000000     0.653380000000     0.0247428  
C159     C      0.976540000000     0.121380000000     0.678190000000    -0.0690571  
C160     C      0.976840000000     0.090700000000     0.678290000000     0.0283924  
C161     C      0.986180000000     0.075060000000     0.653380000000    -0.11429    
C162     C      0.995390000000     0.090740000000     0.628450000000     0.0269306  
C163     C      0.986120000000     0.169510000000     0.653420000000     0.0216217  
C164     C      0.011190000000     0.185030000000     0.644460000000    -0.0668035  
C165     C      0.011400000000     0.215700000000     0.644750000000     0.0301003  
C166     C      0.986360000000     0.231450000000     0.653540000000    -0.116194   
C167     C      0.961200000000     0.215880000000     0.662270000000     0.0286352  
C168     C      0.961160000000     0.185200000000     0.662440000000    -0.06828    
C169     C      0.012210000000     0.645490000000     0.519020000000    -0.0663985  
C170     C      0.986880000000     0.653670000000     0.503330000000     0.022332   
C171     C      0.961680000000     0.661880000000     0.519190000000    -0.0680953  
C172     C      0.961730000000     0.661690000000     0.549850000000     0.0285564  
C173     C      0.987110000000     0.653680000000     0.565440000000    -0.116115   
C174     C      0.012380000000     0.645690000000     0.549710000000     0.0301796  
C175     C      0.986740000000     0.653710000000     0.470610000000     0.0223998  
C176     C      0.011930000000     0.661980000000     0.454780000000    -0.066636   
C177     C      0.011880000000     0.661850000000     0.424110000000     0.0302068  
C178     C      0.986520000000     0.653840000000     0.408500000000    -0.116261   
C179     C      0.961250000000     0.645790000000     0.424220000000     0.0286451  
C180     C      0.961420000000     0.645530000000     0.454900000000    -0.0679964  
C181     C      0.012030000000     0.518890000000     0.662040000000    -0.0666645  
C182     C      0.986830000000     0.503050000000     0.653800000000     0.0223639  
C183     C      0.961500000000     0.518760000000     0.645640000000    -0.067951   
C184     C      0.961330000000     0.549440000000     0.645880000000     0.0285961  
C185     C      0.986610000000     0.565160000000     0.653900000000    -0.116191   
C186     C      0.011970000000     0.549550000000     0.661890000000     0.0302721  
C187     C      0.986970000000     0.470330000000     0.653780000000     0.022365   
C188     C      0.012290000000     0.454630000000     0.645580000000    -0.0664077  
C189     C      0.012450000000     0.423950000000     0.645790000000     0.0302095  
C190     C      0.987180000000     0.408220000000     0.653800000000    -0.116174   
C191     C      0.961820000000     0.423820000000     0.661830000000     0.0286636  
C192     C      0.961770000000     0.454480000000     0.662020000000    -0.0682076  
C193     C      0.962460000000     0.788330000000     0.644650000000    -0.0683832  
C194     C      0.987520000000     0.803870000000     0.653600000000     0.0215384  
C195     C      0.012480000000     0.788200000000     0.662620000000    -0.0666264  
C196     C      0.012470000000     0.757520000000     0.662470000000     0.030155   
C197     C      0.987320000000     0.741930000000     0.653750000000    -0.116195   
C198     C      0.962270000000     0.757660000000     0.644950000000     0.0284876  
C199     C      0.987590000000     0.836370000000     0.653520000000     0.0247235  
C200     C      0.978070000000     0.851940000000     0.628680000000    -0.0692222  
C201     C      0.978210000000     0.882610000000     0.628560000000     0.028497   
C202     C      0.987400000000     0.898320000000     0.653470000000    -0.114654   
C203     C      0.996740000000     0.882710000000     0.678400000000     0.0268848  
C204     C      0.997060000000     0.852030000000     0.678330000000    -0.0708223  
C205     C      0.011260000000     0.644400000000     0.788610000000    -0.0666332  
C206     C      0.986200000000     0.653370000000     0.804160000000     0.0213689  
C207     C      0.961240000000     0.662380000000     0.788480000000    -0.0680819  
C208     C      0.961240000000     0.662200000000     0.757800000000     0.0284012  
C209     C      0.986400000000     0.653460000000     0.742210000000    -0.116076   
C210     C      0.011450000000     0.644670000000     0.757940000000     0.029945   
C211     C      0.986140000000     0.653340000000     0.836660000000     0.0248864  
C212     C      0.995650000000     0.628510000000     0.852250000000    -0.0709839  
C213     C      0.995510000000     0.628430000000     0.882920000000     0.0270868  
C214     C      0.986320000000     0.653360000000     0.898600000000    -0.114766   
C215     C      0.976990000000     0.678270000000     0.882960000000     0.028522   
C216     C      0.976670000000     0.678160000000     0.852280000000    -0.0693412  
C217     C      0.851910000000     0.978230000000     0.345100000000    -0.0692231  
C218     C      0.836330000000     0.987730000000     0.320250000000     0.0247442  
C219     C      0.851980000000     0.997210000000     0.295450000000    -0.070825   
C220     C      0.882650000000     0.996910000000     0.295370000000     0.0269399  
C221     C      0.898280000000     0.987580000000     0.320290000000    -0.114646   
C222     C      0.882580000000     0.978380000000     0.345210000000     0.0284841  
C223     C      0.803830000000     0.987630000000     0.320180000000     0.0215595  
C224     C      0.788310000000     0.962550000000     0.329130000000    -0.0684133  
C225     C      0.757640000000     0.962330000000     0.328820000000     0.0285762  
C226     C      0.741890000000     0.987360000000     0.320020000000    -0.116278   
C227     C      0.757460000000     0.012540000000     0.311310000000     0.0301609  
C228     C      0.788140000000     0.012580000000     0.311160000000    -0.0666552  
C229     C      0.678180000000     0.976710000000     0.121430000000    -0.0691131  
C230     C      0.653360000000     0.986170000000     0.137070000000     0.0247648  
C231     C      0.628530000000     0.995680000000     0.121480000000    -0.0706934  
C232     C      0.628440000000     0.995560000000     0.090810000000     0.026969   
C233     C      0.653370000000     0.986370000000     0.075120000000    -0.11427    
C234     C      0.678280000000     0.977040000000     0.090760000000     0.0284778  
C235     C      0.653400000000     0.986220000000     0.169570000000     0.0216071  
C236     C      0.662420000000     0.961260000000     0.185230000000    -0.0682433  
C237     C      0.662220000000     0.961250000000     0.215920000000     0.0285955  
C238     C      0.653470000000     0.986390000000     0.231510000000    -0.116198   
C239     C      0.644680000000     0.011440000000     0.215790000000     0.0301183  
C240     C      0.644420000000     0.011270000000     0.185120000000    -0.0667669  
C241     C      0.454590000000     0.012130000000     0.328070000000    -0.0663706  
C242     C      0.470290000000     0.986800000000     0.319870000000     0.0223437  
C243     C      0.454440000000     0.961610000000     0.311640000000    -0.0681161  
C244     C      0.423780000000     0.961650000000     0.311820000000     0.0286044  
C245     C      0.408180000000     0.987010000000     0.319840000000    -0.116072   
C246     C      0.423910000000     0.012290000000     0.327860000000     0.0301165  
C247     C      0.503010000000     0.986680000000     0.319850000000     0.0223851  
C248     C      0.518840000000     0.011880000000     0.311610000000    -0.06661    
C249     C      0.549500000000     0.011840000000     0.311770000000     0.0302482  
C250     C      0.565120000000     0.986490000000     0.319770000000    -0.116176   
C251     C      0.549410000000     0.961200000000     0.327780000000     0.0286181  
C252     C      0.518730000000     0.961350000000     0.328020000000    -0.0680104  
C253     C      0.121320000000     0.976560000000     0.295460000000    -0.0691167  
C254     C      0.136960000000     0.986040000000     0.320270000000     0.0248161  
C255     C      0.121400000000     0.995570000000     0.345100000000    -0.0706834  
C256     C      0.090720000000     0.995450000000     0.345210000000     0.0268998  
C257     C      0.075020000000     0.986260000000     0.320290000000    -0.114131   
C258     C      0.090640000000     0.976900000000     0.295380000000     0.0284241  
C259     C      0.169470000000     0.986100000000     0.320200000000     0.0216069  
C260     C      0.185130000000     0.961130000000     0.311180000000    -0.0682423  
C261     C      0.215810000000     0.961140000000     0.311340000000     0.0286127  
C262     C      0.231410000000     0.986290000000     0.320060000000    -0.116183   
C263     C      0.215680000000     0.011340000000     0.328850000000     0.0301176  
C264     C      0.185020000000     0.011160000000     0.329150000000    -0.0667677  
C265     C      0.311040000000     0.012430000000     0.185300000000    -0.0666125  
C266     C      0.320070000000     0.987470000000     0.169630000000     0.0215769  
C267     C      0.329010000000     0.962400000000     0.185170000000    -0.0682744  
C268     C      0.328700000000     0.962200000000     0.215840000000     0.0284911  
C269     C      0.319900000000     0.987240000000     0.231570000000    -0.116076   
C270     C      0.311180000000     0.012410000000     0.215980000000     0.0300806  
C271     C      0.320150000000     0.987550000000     0.137130000000     0.0248146  
C272     C      0.295350000000     0.997020000000     0.121470000000    -0.0706842  
C273     C      0.295290000000     0.996710000000     0.090790000000     0.0269973  
C274     C      0.320210000000     0.987360000000     0.075180000000    -0.114356   
C275     C      0.345130000000     0.978170000000     0.090900000000     0.0285141  
C276     C      0.345000000000     0.978030000000     0.121570000000    -0.0691615  
C277     C      0.311540000000     0.011870000000     0.454620000000    -0.0665817  
C278     C      0.319780000000     0.986670000000     0.470450000000     0.0224     
C279     C      0.327960000000     0.961350000000     0.454740000000    -0.0680184  
C280     C      0.327720000000     0.961190000000     0.424060000000     0.0286389  
C281     C      0.319700000000     0.986470000000     0.408340000000    -0.116222   
C282     C      0.311690000000     0.011830000000     0.423950000000     0.0301814  
C283     C      0.319790000000     0.986800000000     0.503170000000     0.022345   
C284     C      0.327980000000     0.012130000000     0.518880000000    -0.0664154  
C285     C      0.327770000000     0.012280000000     0.549560000000     0.0301997  
C286     C      0.319770000000     0.987000000000     0.565280000000    -0.116134   
C287     C      0.311750000000     0.961640000000     0.549680000000     0.028642   
C288     C      0.311560000000     0.961600000000     0.519020000000    -0.0681594  
C289     C      0.311200000000     0.960990000000     0.788310000000    -0.0682407  
C290     C      0.320220000000     0.985940000000     0.804000000000     0.0214805  
C291     C      0.329170000000     0.011010000000     0.788460000000    -0.0666973  
C292     C      0.328870000000     0.011220000000     0.757790000000     0.0300711  
C293     C      0.320070000000     0.986180000000     0.742050000000    -0.116307   
C294     C      0.311360000000     0.961020000000     0.757630000000     0.028644   
C295     C      0.320280000000     0.985860000000     0.836500000000     0.0248317  
C296     C      0.295470000000     0.976380000000     0.852130000000    -0.0693075  
C297     C      0.295380000000     0.976700000000     0.882810000000     0.0284954  
C298     C      0.320290000000     0.986040000000     0.898440000000    -0.114693   
C299     C      0.345210000000     0.995240000000     0.882750000000     0.0270231  
C300     C      0.345110000000     0.995380000000     0.852080000000    -0.070867   
C301     C      0.185140000000     0.962310000000     0.644580000000    -0.0682636  
C302     C      0.169600000000     0.987380000000     0.653540000000     0.0215091  
C303     C      0.185280000000     0.012340000000     0.662550000000    -0.0665536  
C304     C      0.215960000000     0.012320000000     0.662370000000     0.0300815  
C305     C      0.231540000000     0.987160000000     0.653640000000    -0.116049   
C306     C      0.215810000000     0.962120000000     0.644860000000     0.0285079  
C307     C      0.137100000000     0.987450000000     0.653480000000     0.0248273  
C308     C      0.121520000000     0.977940000000     0.628640000000    -0.0691156  
C309     C      0.090850000000     0.978080000000     0.628530000000     0.0284609  
C310     C      0.075150000000     0.987290000000     0.653450000000    -0.114276   
C311     C      0.090780000000     0.996630000000     0.678360000000     0.0269873  
C312     C      0.121460000000     0.996940000000     0.678290000000    -0.0708048  
C313     C      0.645430000000     0.961340000000     0.518830000000    -0.0678796  
C314     C      0.653590000000     0.986660000000     0.503110000000     0.0222829  
C315     C      0.661850000000     0.011860000000     0.518950000000    -0.0665549  
C316     C      0.661710000000     0.011810000000     0.549610000000     0.0301736  
C317     C      0.653710000000     0.986450000000     0.565220000000    -0.116121   
C318     C      0.645690000000     0.961170000000     0.549510000000     0.02855    
C319     C      0.653560000000     0.986800000000     0.470390000000     0.0224454  
C320     C      0.661790000000     0.961610000000     0.454540000000    -0.0682175  
C321     C      0.661610000000     0.961670000000     0.423870000000     0.0286697  
C322     C      0.653580000000     0.987040000000     0.408280000000    -0.116293   
C323     C      0.645570000000     0.012300000000     0.424020000000     0.0303148  
C324     C      0.645360000000     0.012130000000     0.454700000000    -0.0665205  
C325     C      0.518990000000     0.961630000000     0.661900000000    -0.0681418  
C326     C      0.503140000000     0.986820000000     0.653650000000     0.0223524  
C327     C      0.518840000000     0.012150000000     0.645470000000    -0.0664042  
C328     C      0.549530000000     0.012310000000     0.645700000000     0.0301807  
C329     C      0.565250000000     0.987040000000     0.653720000000    -0.116132   
C330     C      0.549650000000     0.961680000000     0.661740000000     0.0286292  
C331     C      0.470420000000     0.986680000000     0.653650000000     0.0223651  
C332     C      0.454720000000     0.961350000000     0.645480000000    -0.0680064  
C333     C      0.424040000000     0.961180000000     0.645710000000     0.0286804  
C334     C      0.408310000000     0.986450000000     0.653720000000    -0.116276   
C335     C      0.423910000000     0.011820000000     0.661730000000     0.0302165  
C336     C      0.454570000000     0.011880000000     0.661890000000    -0.0666026  
C337     C      0.788440000000     0.011090000000     0.644440000000    -0.0667927  
C338     C      0.803970000000     0.986020000000     0.653420000000     0.0214906  
C339     C      0.788280000000     0.961070000000     0.662450000000    -0.0682596  
C340     C      0.757600000000     0.961100000000     0.662270000000     0.0285778  
C341     C      0.742020000000     0.986260000000     0.653520000000    -0.116298   
C342     C      0.757770000000     0.011290000000     0.644720000000     0.0301328  
C343     C      0.836470000000     0.985940000000     0.653380000000     0.0248337  
C344     C      0.852060000000     0.995430000000     0.628550000000    -0.0709212  
C345     C      0.882730000000     0.995280000000     0.628460000000     0.0270209  
C346     C      0.898410000000     0.986090000000     0.653390000000    -0.114644   
C347     C      0.882770000000     0.976770000000     0.678300000000     0.0284912  
C348     C      0.852090000000     0.976470000000     0.678210000000    -0.0693418  
C349     C      0.644520000000     0.962500000000     0.788420000000    -0.0683495  
C350     C      0.653480000000     0.987570000000     0.803930000000     0.02152    
C351     C      0.662500000000     0.012520000000     0.788230000000    -0.0666887  
C352     C      0.662320000000     0.012470000000     0.757550000000     0.0301812  
C353     C      0.653580000000     0.987300000000     0.741990000000    -0.116267   
C354     C      0.644800000000     0.962270000000     0.757750000000     0.0285151  
C355     C      0.653430000000     0.987680000000     0.836430000000     0.0248254  
C356     C      0.628590000000     0.978180000000     0.852020000000    -0.0693287  
C357     C      0.628480000000     0.978360000000     0.882690000000     0.0285307  
C358     C      0.653410000000     0.987570000000     0.898380000000    -0.114784   
C359     C      0.678320000000     0.996890000000     0.882740000000     0.0270261  
C360     C      0.678240000000     0.997170000000     0.852060000000    -0.0709612  
C361     C      0.295460000000     0.852020000000     0.997100000000    -0.0708486  
C362     C      0.320270000000     0.836390000000     0.987620000000     0.0248278  
C363     C      0.345110000000     0.851970000000     0.978120000000    -0.0693127  
C364     C      0.345200000000     0.882640000000     0.978260000000     0.0284652  
C365     C      0.320270000000     0.898330000000     0.987460000000    -0.114565   
C366     C      0.295360000000     0.882700000000     0.996790000000     0.0269313  
C367     C      0.320230000000     0.803890000000     0.987540000000     0.0214844  
C368     C      0.311210000000     0.788200000000     0.012500000000    -0.0666348  
C369     C      0.311400000000     0.757510000000     0.012470000000     0.0301125  
C370     C      0.320130000000     0.741940000000     0.987300000000    -0.116214   
C371     C      0.328910000000     0.757690000000     0.962260000000     0.0284878  
C372     C      0.329190000000     0.788360000000     0.962470000000    -0.0682982  
C373     C      0.121630000000     0.678150000000     0.976660000000    -0.0691547  
C374     C      0.137260000000     0.653330000000     0.986130000000     0.0248119  
C375     C      0.121670000000     0.628510000000     0.995660000000    -0.0707299  
C376     C      0.090990000000     0.628430000000     0.995540000000     0.0270273  
C377     C      0.075310000000     0.653360000000     0.986340000000    -0.114389   
C378     C      0.090950000000     0.678260000000     0.976990000000     0.0285008  
C379     C      0.169760000000     0.653360000000     0.986180000000     0.0215721  
C380     C      0.185420000000     0.662370000000     0.961210000000    -0.0682429  
C381     C      0.216100000000     0.662190000000     0.961210000000     0.0285638  
C382     C      0.231700000000     0.653460000000     0.986360000000    -0.116159   
C383     C      0.215980000000     0.644670000000     0.011410000000     0.0300766  
C384     C      0.185310000000     0.644400000000     0.011230000000    -0.0666904  
C385     C      0.519130000000     0.662030000000     0.011850000000    -0.0665949  
C386     C      0.503300000000     0.653770000000     0.986660000000     0.0223507  
C387     C      0.519020000000     0.645610000000     0.961330000000    -0.0679654  
C388     C      0.549700000000     0.645870000000     0.961170000000     0.0286302  
C389     C      0.565410000000     0.653900000000     0.986440000000    -0.116171   
C390     C      0.549800000000     0.661900000000     0.011800000000     0.0301997  
C391     C      0.470580000000     0.653720000000     0.986790000000     0.0223661  
C392     C      0.454890000000     0.645520000000     0.012120000000    -0.0663836  
C393     C      0.424210000000     0.645710000000     0.012290000000     0.0301802  
C394     C      0.408470000000     0.653710000000     0.987020000000    -0.116164   
C395     C      0.424060000000     0.661740000000     0.961660000000     0.0286671  
C396     C      0.454720000000     0.661930000000     0.961600000000    -0.0681806  
C397     C      0.662550000000     0.788500000000     0.961090000000    -0.0682108  
C398     C      0.653520000000     0.804170000000     0.986050000000     0.0214455  
C399     C      0.644560000000     0.788630000000     0.011110000000    -0.0666697  
C400     C      0.644860000000     0.757960000000     0.011310000000     0.0300201  
C401     C      0.653670000000     0.742230000000     0.986270000000    -0.116217   
C402     C      0.662400000000     0.757820000000     0.961110000000     0.0285255  
C403     C      0.653450000000     0.836680000000     0.985970000000     0.0248914  
C404     C      0.678250000000     0.852320000000     0.976500000000    -0.0693764  
C405     C      0.678330000000     0.883000000000     0.976810000000     0.028543   
C406     C      0.653410000000     0.898620000000     0.986140000000    -0.114813   
C407     C      0.628490000000     0.882920000000     0.995330000000     0.0270538  
C408     C      0.628600000000     0.852240000000     0.995480000000    -0.0709605  
C409     C      0.788600000000     0.644680000000     0.962490000000    -0.0682804  
C410     C      0.804120000000     0.653630000000     0.987560000000     0.021474   
C411     C      0.788430000000     0.662660000000     0.012510000000    -0.0666103  
C412     C      0.757750000000     0.662510000000     0.012460000000     0.0300836  
C413     C      0.742180000000     0.653780000000     0.987290000000    -0.116109   
C414     C      0.757930000000     0.644980000000     0.962260000000     0.0284277  
C415     C      0.836620000000     0.653550000000     0.987670000000     0.0248086  
C416     C      0.852190000000     0.628700000000     0.978180000000    -0.0692665  
C417     C      0.882860000000     0.628570000000     0.978350000000     0.0284989  
C418     C      0.898570000000     0.653480000000     0.987560000000    -0.114687   
C419     C      0.882950000000     0.678410000000     0.996870000000     0.0269624  
C420     C      0.852270000000     0.678350000000     0.997160000000    -0.070932   
C421     C      0.311830000000     0.518900000000     0.011900000000    -0.0666245  
C422     C      0.320050000000     0.503060000000     0.986700000000     0.0223868  
C423     C      0.328220000000     0.518770000000     0.961370000000    -0.0680014  
C424     C      0.328000000000     0.549450000000     0.961220000000     0.0286448  
C425     C      0.320000000000     0.565170000000     0.986500000000    -0.116169   
C426     C      0.312000000000     0.549560000000     0.011860000000     0.0302248  
C427     C      0.320040000000     0.470340000000     0.986820000000     0.0223758  
C428     C      0.328220000000     0.454630000000     0.012140000000    -0.0663932  
C429     C      0.327980000000     0.423950000000     0.012300000000     0.0302026  
C430     C      0.319950000000     0.408230000000     0.987020000000    -0.116238   
C431     C      0.311930000000     0.423850000000     0.961670000000     0.0286789  
C432     C      0.311780000000     0.454510000000     0.961630000000    -0.0681407  
C433     C      0.121550000000     0.295380000000     0.997090000000    -0.0707118  
C434     C      0.137200000000     0.320180000000     0.987600000000     0.024808   
C435     C      0.121640000000     0.345020000000     0.978080000000    -0.069081   
C436     C      0.090960000000     0.345150000000     0.978230000000     0.028409   
C437     C      0.075250000000     0.320240000000     0.987440000000    -0.114211   
C438     C      0.090870000000     0.295320000000     0.996790000000     0.0269418  
C439     C      0.169700000000     0.320100000000     0.987510000000     0.0215889  
C440     C      0.185380000000     0.311080000000     0.012460000000    -0.0665859  
C441     C      0.216070000000     0.311230000000     0.012430000000     0.0300621  
C442     C      0.231640000000     0.319950000000     0.987260000000    -0.116024   
C443     C      0.215900000000     0.328740000000     0.962230000000     0.0285138  
C444     C      0.185230000000     0.329040000000     0.962440000000    -0.0682856  
C445     C      0.329170000000     0.185060000000     0.011100000000    -0.0667415  
C446     C      0.320200000000     0.169520000000     0.986030000000     0.0215704  
C447     C      0.311180000000     0.185200000000     0.961080000000    -0.0681903  
C448     C      0.311360000000     0.215880000000     0.961090000000     0.0285419  
C449     C      0.320100000000     0.231460000000     0.986250000000    -0.116151   
C450     C      0.328890000000     0.215720000000     0.011290000000     0.0301348  
C451     C      0.320250000000     0.137020000000     0.985960000000     0.0248203  
C452     C      0.345080000000     0.121440000000     0.995480000000    -0.0707039  
C453     C      0.345180000000     0.090770000000     0.995350000000     0.0270229  
C454     C      0.320260000000     0.075070000000     0.986150000000    -0.114383   
C455     C      0.295350000000     0.090700000000     0.976810000000     0.0285381  
C456     C      0.295440000000     0.121380000000     0.976490000000    -0.0691301  
C457     C      0.662090000000     0.519200000000     0.961610000000    -0.0681643  
C458     C      0.653840000000     0.503350000000     0.986790000000     0.0223533  
C459     C      0.645650000000     0.519050000000     0.012120000000    -0.0663765  
C460     C      0.645890000000     0.549740000000     0.012290000000     0.0301701  
C461     C      0.653920000000     0.565460000000     0.987020000000    -0.116141   
C462     C      0.661940000000     0.549860000000     0.961660000000     0.0286397  
C463     C      0.653820000000     0.470630000000     0.986660000000     0.0223881  
C464     C      0.645650000000     0.454930000000     0.961320000000    -0.0680223  
C465     C      0.645860000000     0.424250000000     0.961160000000     0.0286671  
C466     C      0.653860000000     0.408520000000     0.986430000000    -0.116198   
C467     C      0.661870000000     0.424120000000     0.011800000000     0.0302107  
C468     C      0.662050000000     0.454780000000     0.011850000000    -0.066655   
C469     C      0.454800000000     0.328090000000     0.961310000000    -0.0679765  
C470     C      0.470520000000     0.319920000000     0.986630000000     0.0224151  
C471     C      0.454700000000     0.311660000000     0.011830000000    -0.0666783  
C472     C      0.424030000000     0.311780000000     0.011780000000     0.0302927  
C473     C      0.408410000000     0.319780000000     0.986430000000    -0.116284   
C474     C      0.424120000000     0.327820000000     0.961150000000     0.0286441  
C475     C      0.503240000000     0.319980000000     0.986750000000     0.0223318  
C476     C      0.519100000000     0.311770000000     0.961550000000    -0.0681661  
C477     C      0.549760000000     0.311980000000     0.961600000000     0.0286371  
C478     C      0.565350000000     0.320000000000     0.986970000000    -0.116142   
C479     C      0.549620000000     0.327990000000     0.012240000000     0.0302167  
C480     C      0.518940000000     0.328180000000     0.012080000000    -0.0663652  
C481     C      0.852150000000     0.345190000000     0.995450000000    -0.0708847  
C482     C      0.836570000000     0.320350000000     0.985940000000     0.024824   
C483     C      0.852200000000     0.295530000000     0.976480000000    -0.0692963  
C484     C      0.882870000000     0.295430000000     0.976800000000     0.0284809  
C485     C      0.898510000000     0.320340000000     0.986130000000    -0.114573   
C486     C      0.882830000000     0.345270000000     0.995320000000     0.0269462  
C487     C      0.804070000000     0.320320000000     0.986010000000     0.0214773  
C488     C      0.788530000000     0.329290000000     0.011070000000    -0.0667132  
C489     C      0.757860000000     0.329010000000     0.011260000000     0.0300363  
C490     C      0.742120000000     0.320210000000     0.986220000000    -0.116175   
C491     C      0.757710000000     0.311470000000     0.961070000000     0.0285624  
C492     C      0.788390000000     0.311290000000     0.961050000000    -0.068222   
C493     C      0.644550000000     0.185340000000     0.962350000000    -0.0683921  
C494     C      0.653490000000     0.169810000000     0.987420000000     0.0216218  
C495     C      0.662520000000     0.185490000000     0.012380000000    -0.0666746  
C496     C      0.662360000000     0.216170000000     0.012350000000     0.0301884  
C497     C      0.653650000000     0.231750000000     0.987190000000    -0.116092   
C498     C      0.644850000000     0.216010000000     0.962150000000     0.0285227  
C499     C      0.653430000000     0.137310000000     0.987510000000     0.0247637  
C500     C      0.628590000000     0.121730000000     0.977990000000    -0.0691044  
C501     C      0.628480000000     0.091060000000     0.978140000000     0.0284937  
C502     C      0.653400000000     0.075360000000     0.987350000000    -0.114368   
C503     C      0.678310000000     0.090990000000     0.996690000000     0.0270122  
C504     C      0.678240000000     0.121660000000     0.996990000000    -0.0707453  
H1       H      0.004250000000     0.133100000000     0.275890000000     0.0497319  
H2       H      0.003950000000     0.079440000000     0.275810000000     0.0362916  
H3       H      0.970730000000     0.079620000000     0.364660000000     0.0344351  
H4       H      0.970780000000     0.133270000000     0.364500000000     0.0479241  
H5       H      0.942810000000     0.173710000000     0.335950000000     0.0476523  
H6       H      0.942540000000     0.227350000000     0.335720000000     0.0338863  
H7       H      0.032030000000     0.227580000000     0.304280000000     0.0342707  
H8       H      0.032080000000     0.173910000000     0.304260000000     0.0479339  
H9       H      0.002800000000     0.364660000000     0.133080000000     0.0497661  
H10      H      0.002840000000     0.364770000000     0.079430000000     0.0362783  
H11      H      0.969550000000     0.275940000000     0.079350000000     0.0343752  
H12      H      0.969270000000     0.276070000000     0.133010000000     0.047914   
H13      H      0.941480000000     0.304490000000     0.173800000000     0.0477611  
H14      H      0.941560000000     0.304520000000     0.227470000000     0.0342563  
H15      H      0.031070000000     0.335910000000     0.227180000000     0.0338862  
H16      H      0.030770000000     0.336130000000     0.173550000000     0.0477452  
H17      H      0.031750000000     0.465970000000     0.304780000000     0.0469241  
H18      H      0.031730000000     0.412600000000     0.305360000000     0.0339164  
H19      H      0.941490000000     0.412790000000     0.334430000000     0.0341929  
H20      H      0.941830000000     0.466230000000     0.335160000000     0.0469811  
H21      H      0.942010000000     0.507890000000     0.304780000000     0.0468728  
H22      H      0.942010000000     0.561260000000     0.305410000000     0.0339331  
H23      H      0.032240000000     0.561080000000     0.334500000000     0.0342148  
H24      H      0.031930000000     0.507640000000     0.335180000000     0.0470279  
H25      H      0.030630000000     0.800210000000     0.336160000000     0.0477193  
H26      H      0.030980000000     0.746580000000     0.335950000000     0.0338323  
H27      H      0.941490000000     0.746220000000     0.304510000000     0.0342207  
H28      H      0.941370000000     0.799890000000     0.304470000000     0.0476499  
H29      H      0.969140000000     0.840700000000     0.276060000000     0.0477867  
H30      H      0.969380000000     0.894360000000     0.275930000000     0.0340217  
H31      H      0.002610000000     0.894300000000     0.364780000000     0.0359552  
H32      H      0.002620000000     0.840660000000     0.364680000000     0.0496404  
H33      H      0.970920000000     0.609210000000     0.133290000000     0.0479397  
H34      H      0.970930000000     0.609050000000     0.079650000000     0.0344083  
H35      H      0.004180000000     0.697890000000     0.079490000000     0.036201   
H36      H      0.004410000000     0.697820000000     0.133150000000     0.0496525  
H37      H      0.032190000000     0.669460000000     0.173990000000     0.0478446  
H38      H      0.032080000000     0.669440000000     0.227660000000     0.0342781  
H39      H      0.942590000000     0.638000000000     0.227350000000     0.0338714  
H40      H      0.942920000000     0.637770000000     0.173710000000     0.0476387  
H41      H      0.941980000000     0.304720000000     0.465830000000     0.0468234  
H42      H      0.941990000000     0.305380000000     0.412450000000     0.0339575  
H43      H      0.032230000000     0.334420000000     0.412660000000     0.03423    
H44      H      0.031920000000     0.335070000000     0.466100000000     0.0469874  
H45      H      0.031720000000     0.304650000000     0.507740000000     0.0469376  
H46      H      0.031720000000     0.305220000000     0.561120000000     0.0338979  
H47      H      0.941500000000     0.334330000000     0.560950000000     0.0341867  
H48      H      0.941810000000     0.335080000000     0.507520000000     0.046982   
H49      H      0.970980000000     0.364480000000     0.840450000000     0.0477872  
H50      H      0.970960000000     0.364650000000     0.894100000000     0.034093   
H51      H      0.004160000000     0.275790000000     0.894290000000     0.0359336  
H52      H      0.004420000000     0.275850000000     0.840630000000     0.0496012  
H53      H      0.032230000000     0.304190000000     0.799790000000     0.0478001  
H54      H      0.032140000000     0.304190000000     0.746120000000     0.0342522  
H55      H      0.942650000000     0.335650000000     0.746410000000     0.0338444  
H56      H      0.942970000000     0.335910000000     0.800040000000     0.0475521  
H57      H      0.969280000000     0.132910000000     0.697680000000     0.047816   
H58      H      0.969530000000     0.079250000000     0.697790000000     0.0343403  
H59      H      0.002780000000     0.079330000000     0.608950000000     0.0363163  
H60      H      0.002780000000     0.132980000000     0.609070000000     0.0497103  
H61      H      0.030770000000     0.173430000000     0.637600000000     0.0478083  
H62      H      0.031100000000     0.227060000000     0.637820000000     0.0338681  
H63      H      0.941600000000     0.227380000000     0.669250000000     0.0342185  
H64      H      0.941500000000     0.173710000000     0.669270000000     0.0477597  
H65      H      0.941930000000     0.668860000000     0.507960000000     0.0467991  
H66      H      0.941960000000     0.668200000000     0.561330000000     0.0339479  
H67      H      0.032210000000     0.639180000000     0.561080000000     0.0342117  
H68      H      0.031870000000     0.638520000000     0.507650000000     0.0470237  
H69      H      0.031660000000     0.668970000000     0.466020000000     0.0469072  
H70      H      0.031640000000     0.668410000000     0.412650000000     0.0339126  
H71      H      0.941430000000     0.639270000000     0.412820000000     0.0341932  
H72      H      0.941760000000     0.638520000000     0.466260000000     0.0469518  
H73      H      0.941840000000     0.507390000000     0.638640000000     0.0469369  
H74      H      0.941500000000     0.560830000000     0.639380000000     0.0342136  
H75      H      0.031750000000     0.561030000000     0.668420000000     0.0338928  
H76      H      0.031770000000     0.507650000000     0.669000000000     0.0469137  
H77      H      0.031950000000     0.466000000000     0.638590000000     0.0470105  
H78      H      0.032270000000     0.412560000000     0.639260000000     0.0342062  
H79      H      0.942050000000     0.412350000000     0.668370000000     0.0339191  
H80      H      0.942040000000     0.465720000000     0.669010000000     0.0468504  
H81      H      0.032140000000     0.799710000000     0.669450000000     0.0477582  
H82      H      0.032080000000     0.746030000000     0.669450000000     0.0342099  
H83      H      0.942580000000     0.746280000000     0.638020000000     0.0338376  
H84      H      0.942870000000     0.799910000000     0.637780000000     0.0475729  
H85      H      0.970840000000     0.840350000000     0.609210000000     0.0477883  
H86      H      0.970810000000     0.894000000000     0.609050000000     0.0340724  
H87      H      0.004040000000     0.894180000000     0.697900000000     0.0358793  
H88      H      0.004320000000     0.840520000000     0.697830000000     0.049512   
H89      H      0.941580000000     0.669230000000     0.799980000000     0.0475804  
H90      H      0.941640000000     0.669170000000     0.746300000000     0.0342318  
H91      H      0.031140000000     0.637740000000     0.746570000000     0.0338622  
H92      H      0.030850000000     0.637540000000     0.800210000000     0.0476437  
H93      H      0.002870000000     0.609030000000     0.840690000000     0.0496643  
H94      H      0.002910000000     0.608930000000     0.894340000000     0.0359381  
H95      H      0.969690000000     0.697790000000     0.894410000000     0.0339501  
H96      H      0.969410000000     0.697650000000     0.840750000000     0.0477178  
H97      H      0.840460000000     0.004460000000     0.275950000000     0.0495772  
H98      H      0.894120000000     0.004210000000     0.275870000000     0.0359353  
H99      H      0.893980000000     0.970990000000     0.364720000000     0.0340806  
H100     H      0.840330000000     0.970990000000     0.364570000000     0.0477919  
H101     H      0.799920000000     0.942980000000     0.336000000000     0.0476017  
H102     H      0.746280000000     0.942630000000     0.335750000000     0.033821   
H103     H      0.745950000000     0.032140000000     0.304330000000     0.0342214  
H104     H      0.799620000000     0.032250000000     0.304330000000     0.0478067  
H105     H      0.609050000000     0.002910000000     0.133040000000     0.049728   
H106     H      0.608940000000     0.002950000000     0.079400000000     0.0363172  
H107     H      0.697800000000     0.969740000000     0.079300000000     0.0343202  
H108     H      0.697670000000     0.969450000000     0.132960000000     0.0478274  
H109     H      0.669270000000     0.941610000000     0.173730000000     0.047744   
H110     H      0.669200000000     0.941640000000     0.227400000000     0.0342218  
H111     H      0.637730000000     0.031130000000     0.227170000000     0.0338643  
H112     H      0.637550000000     0.030860000000     0.173530000000     0.0477805  
H113     H      0.465680000000     0.941870000000     0.304650000000     0.0468288  
H114     H      0.412310000000     0.941880000000     0.305280000000     0.0339463  
H115     H      0.412520000000     0.032110000000     0.334380000000     0.0342379  
H116     H      0.465950000000     0.031790000000     0.335060000000     0.0470182  
H117     H      0.507590000000     0.031620000000     0.304640000000     0.0469078  
H118     H      0.560970000000     0.031620000000     0.305240000000     0.033923   
H119     H      0.560810000000     0.941380000000     0.334280000000     0.0342107  
H120     H      0.507370000000     0.941690000000     0.335000000000     0.0469849  
H121     H      0.132970000000     0.002810000000     0.364570000000     0.049725   
H122     H      0.079330000000     0.002860000000     0.364710000000     0.0363347  
H123     H      0.079170000000     0.969590000000     0.275880000000     0.0344131  
H124     H      0.132830000000     0.969290000000     0.275970000000     0.0479159  
H125     H      0.173630000000     0.941470000000     0.304360000000     0.0477738  
H126     H      0.227300000000     0.941530000000     0.304370000000     0.0342512  
H127     H      0.227060000000     0.031030000000     0.335770000000     0.0338858  
H128     H      0.173430000000     0.030750000000     0.336020000000     0.047797   
H129     H      0.335890000000     0.942810000000     0.173580000000     0.0476467  
H130     H      0.335620000000     0.942510000000     0.227210000000     0.0339014  
H131     H      0.304200000000     0.032010000000     0.227480000000     0.0342916  
H132     H      0.304220000000     0.032090000000     0.173810000000     0.0479129  
H133     H      0.275850000000     0.004290000000     0.132980000000     0.0497023  
H134     H      0.275790000000     0.004010000000     0.079320000000     0.0362696  
H135     H      0.364640000000     0.970770000000     0.079510000000     0.0344053  
H136     H      0.364460000000     0.970800000000     0.133150000000     0.047956   
H137     H      0.334950000000     0.941690000000     0.466100000000     0.0469785  
H138     H      0.334230000000     0.941370000000     0.412670000000     0.0342058  
H139     H      0.305160000000     0.031600000000     0.412480000000     0.0339338  
H140     H      0.304560000000     0.031610000000     0.465860000000     0.0469028  
H141     H      0.334960000000     0.031790000000     0.507520000000     0.0470367  
H142     H      0.334290000000     0.032100000000     0.560950000000     0.0342149  
H143     H      0.305220000000     0.941870000000     0.561150000000     0.0339407  
H144     H      0.304580000000     0.941870000000     0.507770000000     0.0468578  
H145     H      0.336040000000     0.030600000000     0.800060000000     0.0476672  
H146     H      0.335790000000     0.030920000000     0.746430000000     0.0338376  
H147     H      0.304380000000     0.941410000000     0.746130000000     0.0341822  
H148     H      0.304380000000     0.941320000000     0.799800000000     0.0476588  
H149     H      0.275980000000     0.969120000000     0.840610000000     0.0477926  
H150     H      0.275880000000     0.969390000000     0.894270000000     0.0340334  
H151     H      0.364720000000     0.002640000000     0.894150000000     0.0359504  
H152     H      0.364590000000     0.002620000000     0.840510000000     0.0496032  
H153     H      0.173780000000     0.032000000000     0.669390000000     0.0478467  
H154     H      0.227450000000     0.031930000000     0.669340000000     0.0342778  
H155     H      0.227180000000     0.942420000000     0.637920000000     0.0338859  
H156     H      0.173540000000     0.942720000000     0.637710000000     0.0476196  
H157     H      0.133090000000     0.970700000000     0.609170000000     0.0479301  
H158     H      0.079450000000     0.970690000000     0.609030000000     0.0344324  
H159     H      0.079310000000     0.003940000000     0.697860000000     0.0362207  
H160     H      0.132980000000     0.004200000000     0.697770000000     0.0497004  
H161     H      0.668810000000     0.031600000000     0.507700000000     0.0468769  
H162     H      0.668250000000     0.031580000000     0.561070000000     0.0339269  
H163     H      0.639180000000     0.941350000000     0.560900000000     0.034215   
H164     H      0.638430000000     0.941670000000     0.507470000000     0.04691    
H165     H      0.668780000000     0.941870000000     0.465770000000     0.0468461  
H166     H      0.668140000000     0.941900000000     0.412390000000     0.0339131  
H167     H      0.639050000000     0.032130000000     0.412640000000     0.0341858  
H168     H      0.638370000000     0.031780000000     0.466070000000     0.0470586  
H169     H      0.507480000000     0.031810000000     0.638480000000     0.047021   
H170     H      0.560910000000     0.032140000000     0.639180000000     0.0342113  
H171     H      0.561120000000     0.941910000000     0.668280000000     0.0339314  
H172     H      0.507750000000     0.941890000000     0.668890000000     0.0468154  
H173     H      0.466090000000     0.941690000000     0.638490000000     0.0469591  
H174     H      0.412660000000     0.941350000000     0.639200000000     0.0341863  
H175     H      0.412430000000     0.031590000000     0.668260000000     0.0339057  
H176     H      0.465810000000     0.031620000000     0.668870000000     0.0468847  
H177     H      0.799760000000     0.941410000000     0.669300000000     0.0476481  
H178     H      0.746090000000     0.941500000000     0.669250000000     0.0341872  
H179     H      0.746410000000     0.030990000000     0.637770000000     0.0338167  
H180     H      0.800040000000     0.030670000000     0.637570000000     0.047695   
H181     H      0.840500000000     0.002660000000     0.609070000000     0.0496413  
H182     H      0.894150000000     0.002660000000     0.608950000000     0.0359702  
H183     H      0.894220000000     0.969470000000     0.697820000000     0.033961   
H184     H      0.840560000000     0.969230000000     0.697700000000     0.0477353  
H185     H      0.669330000000     0.032190000000     0.799700000000     0.0477982  
H186     H      0.669290000000     0.032070000000     0.746030000000     0.0342046  
H187     H      0.637860000000     0.942570000000     0.746400000000     0.0338242  
H188     H      0.637650000000     0.942920000000     0.800030000000     0.0475489  
H189     H      0.609120000000     0.970940000000     0.840460000000     0.0478412  
H190     H      0.608980000000     0.970970000000     0.894100000000     0.0340671  
H191     H      0.697820000000     0.004210000000     0.894200000000     0.0358422  
H192     H      0.697730000000     0.004420000000     0.840540000000     0.0495645  
H193     H      0.364580000000     0.840410000000     0.970880000000     0.0478391  
H194     H      0.364700000000     0.894050000000     0.970870000000     0.0340844  
H195     H      0.275850000000     0.894150000000     0.004100000000     0.0359294  
H196     H      0.275970000000     0.840490000000     0.004360000000     0.0495849  
H197     H      0.304380000000     0.799680000000     0.032160000000     0.0478235  
H198     H      0.304430000000     0.746010000000     0.032070000000     0.034239   
H199     H      0.335850000000     0.746330000000     0.942570000000     0.0338483  
H200     H      0.336050000000     0.799960000000     0.942880000000     0.0475494  
H201     H      0.133230000000     0.609030000000     0.002890000000     0.0497376  
H202     H      0.079580000000     0.608930000000     0.002950000000     0.036291   
H203     H      0.079500000000     0.697770000000     0.969690000000     0.0343134  
H204     H      0.133160000000     0.697630000000     0.969390000000     0.0478516  
H205     H      0.173920000000     0.669210000000     0.941560000000     0.0477498  
H206     H      0.227590000000     0.669160000000     0.941600000000     0.034237   
H207     H      0.227360000000     0.637740000000     0.031100000000     0.0338888  
H208     H      0.173720000000     0.637530000000     0.030830000000     0.0477443  
H209     H      0.507660000000     0.638600000000     0.941670000000     0.0469462  
H210     H      0.561100000000     0.639370000000     0.941350000000     0.0341986  
H211     H      0.561260000000     0.668450000000     0.031580000000     0.0339223  
H212     H      0.507880000000     0.668990000000     0.031590000000     0.0468876  
H213     H      0.466270000000     0.638540000000     0.031780000000     0.0470002  
H214     H      0.412840000000     0.639180000000     0.032120000000     0.0342144  
H215     H      0.412570000000     0.668250000000     0.941890000000     0.0339296  
H216     H      0.465950000000     0.668930000000     0.941860000000     0.0468297  
H217     H      0.637680000000     0.800230000000     0.030700000000     0.0476413  
H218     H      0.637930000000     0.746590000000     0.031000000000     0.0338523  
H219     H      0.669390000000     0.746320000000     0.941510000000     0.0342001  
H220     H      0.669390000000     0.799990000000     0.941430000000     0.0476304  
H221     H      0.697750000000     0.840810000000     0.969250000000     0.0477392  
H222     H      0.697830000000     0.894470000000     0.969510000000     0.033956   
H223     H      0.608980000000     0.894320000000     0.002720000000     0.0359472  
H224     H      0.609130000000     0.840670000000     0.002710000000     0.0496596  
H225     H      0.799910000000     0.669490000000     0.032180000000     0.0477691  
H226     H      0.746230000000     0.669490000000     0.032060000000     0.0342337  
H227     H      0.746580000000     0.638050000000     0.942560000000     0.0338464  
H228     H      0.800210000000     0.637800000000     0.942910000000     0.0475241  
H229     H      0.840610000000     0.609230000000     0.970940000000     0.0478028  
H230     H      0.894260000000     0.609050000000     0.970980000000     0.0340731  
H231     H      0.894420000000     0.697910000000     0.004180000000     0.0358522  
H232     H      0.840760000000     0.697850000000     0.004400000000     0.0495553  
H233     H      0.335190000000     0.507410000000     0.941700000000     0.0469683  
H234     H      0.334500000000     0.560850000000     0.941390000000     0.0342022  
H235     H      0.305480000000     0.561030000000     0.031640000000     0.0339273  
H236     H      0.304860000000     0.507660000000     0.031640000000     0.0469196  
H237     H      0.335230000000     0.465990000000     0.031800000000     0.0470083  
H238     H      0.334500000000     0.412550000000     0.032120000000     0.0342185  
H239     H      0.305380000000     0.412380000000     0.941900000000     0.0339362  
H240     H      0.304790000000     0.465760000000     0.941890000000     0.0468266  
H241     H      0.133210000000     0.364490000000     0.970840000000     0.0479199  
H242     H      0.079570000000     0.364650000000     0.970830000000     0.0344431  
H243     H      0.079400000000     0.275820000000     0.004100000000     0.0362897  
H244     H      0.133060000000     0.275890000000     0.004360000000     0.0497278  
H245     H      0.173900000000     0.304260000000     0.032130000000     0.0478972  
H246     H      0.227570000000     0.304260000000     0.032030000000     0.0343026  
H247     H      0.227260000000     0.335660000000     0.942520000000     0.0338937  
H248     H      0.173630000000     0.335910000000     0.942850000000     0.0476438  
H249     H      0.304340000000     0.173710000000     0.941420000000     0.0477556  
H250     H      0.304390000000     0.227380000000     0.941490000000     0.034259   
H251     H      0.335830000000     0.227090000000     0.030990000000     0.0338751  
H252     H      0.336030000000     0.173460000000     0.030690000000     0.0477856  
H253     H      0.364560000000     0.133010000000     0.002710000000     0.0497201  
H254     H      0.364680000000     0.079360000000     0.002750000000     0.0363022  
H255     H      0.275840000000     0.079240000000     0.969500000000     0.0343704  
H256     H      0.275950000000     0.132900000000     0.969220000000     0.0479048  
H257     H      0.638650000000     0.507690000000     0.031780000000     0.0470057  
H258     H      0.639370000000     0.561120000000     0.032120000000     0.034219   
H259     H      0.668480000000     0.561330000000     0.941890000000     0.0339219  
H260     H      0.669070000000     0.507960000000     0.941870000000     0.0468264  
H261     H      0.638670000000     0.466300000000     0.941660000000     0.0469685  
H262     H      0.639340000000     0.412870000000     0.941330000000     0.0341866  
H263     H      0.668390000000     0.412640000000     0.031570000000     0.0339132  
H264     H      0.669020000000     0.466010000000     0.031590000000     0.0469142  
H265     H      0.465950000000     0.304690000000     0.031560000000     0.0469433  
H266     H      0.412570000000     0.305220000000     0.031560000000     0.0339022  
H267     H      0.412720000000     0.334320000000     0.941330000000     0.0342009  
H268     H      0.466150000000     0.335100000000     0.941640000000     0.0469442  
H269     H      0.507860000000     0.304780000000     0.941820000000     0.0468629  
H270     H      0.561240000000     0.305460000000     0.941830000000     0.0339464  
H271     H      0.561000000000     0.334520000000     0.032070000000     0.0342068  
H272     H      0.507570000000     0.335150000000     0.031750000000     0.0470001  
H273     H      0.840670000000     0.276040000000     0.969230000000     0.0477858  
H274     H      0.894330000000     0.275910000000     0.969510000000     0.0340385  
H275     H      0.894240000000     0.364770000000     0.002710000000     0.0359792  
H276     H      0.840590000000     0.364670000000     0.002670000000     0.0496388  
H277     H      0.800130000000     0.336150000000     0.030660000000     0.0476794  
H278     H      0.746490000000     0.335950000000     0.030950000000     0.0338564  
H279     H      0.746210000000     0.304490000000     0.941460000000     0.0342085  
H280     H      0.799880000000     0.304450000000     0.941390000000     0.0476634  
H281     H      0.669350000000     0.174000000000     0.032040000000     0.0478939  
H282     H      0.669340000000     0.227670000000     0.031960000000     0.0342569  
H283     H      0.637920000000     0.227380000000     0.942450000000     0.0338792  
H284     H      0.637680000000     0.173750000000     0.942770000000     0.0476854  
H285     H      0.609120000000     0.133300000000     0.970750000000     0.0479261  
H286     H      0.608980000000     0.079660000000     0.970750000000     0.0344203  
H287     H      0.697810000000     0.079520000000     0.004000000000     0.0362044  
H288     H      0.697730000000     0.133180000000     0.004250000000     0.0496649  
Ni1      Ni     0.653560000000     0.319940000000     0.960500000000     0.992663   
Ni2      Ni     0.653940000000     0.320320000000     0.012900000000     0.995645   
Ni3      Ni     0.320220000000     0.319650000000     0.012940000000     0.995914   
Ni4      Ni     0.319820000000     0.320030000000     0.960540000000     0.992451   
Ni5      Ni     0.653600000000     0.654040000000     0.012950000000     0.995797   
Ni6      Ni     0.654010000000     0.653660000000     0.960560000000     0.992294   
Ni7      Ni     0.320260000000     0.653760000000     0.960600000000     0.992377   
Ni8      Ni     0.319900000000     0.653370000000     0.012990000000     0.995825   
Ni9      Ni     0.653840000000     0.012960000000     0.653410000000     0.995751   
Ni10     Ni     0.653450000000     0.960570000000     0.653820000000     0.992419   
Ni11     Ni     0.319740000000     0.960500000000     0.653480000000     0.992628   
Ni12     Ni     0.320100000000     0.012900000000     0.653880000000     0.995918   
Ni13     Ni     0.319600000000     0.012950000000     0.320140000000     0.996061   
Ni14     Ni     0.319970000000     0.960560000000     0.319760000000     0.99233    
Ni15     Ni     0.653720000000     0.960620000000     0.320060000000     0.992482   
Ni16     Ni     0.653310000000     0.013020000000     0.319720000000     0.995962   
Ni17     Ni     0.960660000000     0.653740000000     0.653650000000     0.992516   
Ni18     Ni     0.013060000000     0.653370000000     0.654020000000     0.995696   
Ni19     Ni     0.013080000000     0.319630000000     0.653460000000     0.995701   
Ni20     Ni     0.960680000000     0.320030000000     0.653850000000     0.992517   
Ni21     Ni     0.013010000000     0.654000000000     0.320310000000     0.995694   
Ni22     Ni     0.960610000000     0.653590000000     0.319910000000     0.992745   
Ni23     Ni     0.960630000000     0.319890000000     0.320130000000     0.992489   
Ni24     Ni     0.013030000000     0.320250000000     0.319740000000     0.995801   
Ni25     Ni     0.986870000000     0.294080000000     0.986810000000     0.990585   
Ni26     Ni     0.986900000000     0.346470000000     0.986780000000     0.991536   
Ni27     Ni     0.986920000000     0.627240000000     0.986990000000     0.991667   
Ni28     Ni     0.986960000000     0.679630000000     0.986950000000     0.990372   
Ni29     Ni     0.986650000000     0.986950000000     0.346470000000     0.991327   
Ni30     Ni     0.986650000000     0.986910000000     0.294080000000     0.990618   
Ni31     Ni     0.986790000000     0.986680000000     0.627240000000     0.991285   
Ni32     Ni     0.986770000000     0.986700000000     0.679630000000     0.990413   
Ni33     Ni     0.627220000000     0.986990000000     0.986750000000     0.991256   
Ni34     Ni     0.679600000000     0.986990000000     0.986750000000     0.990346   
Ni35     Ni     0.294050000000     0.986700000000     0.986800000000     0.990718   
Ni36     Ni     0.346440000000     0.986700000000     0.986820000000     0.991561   
O1       O      0.611600000000     0.319900000000     0.962430000000    -0.43862    
O2       O      0.695620000000     0.319820000000     0.962000000000    -0.437279   
O3       O      0.653430000000     0.277940000000     0.962470000000    -0.43801    
O4       O      0.653530000000     0.362040000000     0.962040000000    -0.436817   
O5       O      0.653980000000     0.362280000000     0.010960000000    -0.437797   
O6       O      0.654050000000     0.278250000000     0.011400000000    -0.436156   
O7       O      0.695930000000     0.320440000000     0.010930000000    -0.437027   
O8       O      0.611830000000     0.320350000000     0.011350000000    -0.435686   
O9       O      0.362180000000     0.319600000000     0.010980000000    -0.437777   
O10      O      0.278160000000     0.319540000000     0.011460000000    -0.436181   
O11      O      0.320340000000     0.277650000000     0.010960000000    -0.437043   
O12      O      0.320260000000     0.361750000000     0.011400000000    -0.435808   
O13      O      0.319780000000     0.362000000000     0.962480000000    -0.438539   
O14      O      0.319700000000     0.277970000000     0.962040000000    -0.437408   
O15      O      0.277820000000     0.320160000000     0.962530000000    -0.437991   
O16      O      0.361920000000     0.320070000000     0.962060000000    -0.436644   
O17      O      0.611640000000     0.654070000000     0.011000000000    -0.437721   
O18      O      0.695660000000     0.654170000000     0.011480000000    -0.436176   
O19      O      0.653460000000     0.696040000000     0.010980000000    -0.437044   
O20      O      0.653580000000     0.611940000000     0.011410000000    -0.435761   
O21      O      0.654060000000     0.611700000000     0.962490000000    -0.438772   
O22      O      0.654110000000     0.695730000000     0.962060000000    -0.437132   
O23      O      0.696000000000     0.653560000000     0.962550000000    -0.437914   
O24      O      0.611900000000     0.653620000000     0.962080000000    -0.43669    
O25      O      0.362220000000     0.653820000000     0.962510000000    -0.438729   
O26      O      0.278190000000     0.653860000000     0.962120000000    -0.437291   
O27      O      0.320360000000     0.695760000000     0.962580000000    -0.437997   
O28      O      0.320300000000     0.611660000000     0.962130000000    -0.43679    
O29      O      0.319870000000     0.611410000000     0.011050000000    -0.437664   
O30      O      0.319770000000     0.695430000000     0.011500000000    -0.436326   
O31      O      0.277900000000     0.653230000000     0.011040000000    -0.437095   
O32      O      0.362000000000     0.653350000000     0.011430000000    -0.435818   
O33      O      0.653870000000     0.011000000000     0.611450000000    -0.437726   
O34      O      0.653960000000     0.011480000000     0.695470000000    -0.436261   
O35      O      0.695840000000     0.010980000000     0.653280000000    -0.43705    
O36      O      0.611740000000     0.011430000000     0.653380000000    -0.43566    
O37      O      0.611490000000     0.962510000000     0.653870000000    -0.438728   
O38      O      0.695520000000     0.962060000000     0.653920000000    -0.437294   
O39      O      0.653340000000     0.962560000000     0.695810000000    -0.438097   
O40      O      0.653410000000     0.962080000000     0.611710000000    -0.436691   
O41      O      0.319670000000     0.962450000000     0.611520000000    -0.438667   
O42      O      0.319650000000     0.961990000000     0.695540000000    -0.43741    
O43      O      0.277740000000     0.962460000000     0.653380000000    -0.437937   
O44      O      0.361840000000     0.962050000000     0.653420000000    -0.436662   
O45      O      0.362060000000     0.010970000000     0.653890000000    -0.437795   
O46      O      0.278040000000     0.011390000000     0.654020000000    -0.436275   
O47      O      0.320250000000     0.010910000000     0.695870000000    -0.437177   
O48      O      0.320110000000     0.011370000000     0.611770000000    -0.435669   
O49      O      0.319560000000     0.011010000000     0.362100000000    -0.437738   
O50      O      0.319490000000     0.011450000000     0.278080000000    -0.4364     
O51      O      0.277610000000     0.010990000000     0.320270000000    -0.437267   
O52      O      0.361700000000     0.011400000000     0.320170000000    -0.435748   
O53      O      0.361930000000     0.962480000000     0.319710000000    -0.438658   
O54      O      0.277900000000     0.962070000000     0.319650000000    -0.437301   
O55      O      0.320090000000     0.962530000000     0.277760000000    -0.437987   
O56      O      0.320010000000     0.962090000000     0.361860000000    -0.436658   
O57      O      0.653740000000     0.962530000000     0.362030000000    -0.438642   
O58      O      0.653850000000     0.962150000000     0.278000000000    -0.437312   
O59      O      0.695720000000     0.962620000000     0.320200000000    -0.437987   
O60      O      0.611620000000     0.962130000000     0.320080000000    -0.436769   
O61      O      0.611340000000     0.011050000000     0.319660000000    -0.437681   
O62      O      0.695370000000     0.011540000000     0.319620000000    -0.43642    
O63      O      0.653200000000     0.011070000000     0.277720000000    -0.437185   
O64      O      0.653250000000     0.011450000000     0.361810000000    -0.435775   
O65      O      0.962580000000     0.653790000000     0.611690000000    -0.438736   
O66      O      0.962170000000     0.653840000000     0.695720000000    -0.437076   
O67      O      0.962620000000     0.695730000000     0.653540000000    -0.438256   
O68      O      0.962210000000     0.611630000000     0.653610000000    -0.43673    
O69      O      0.011130000000     0.611410000000     0.654050000000    -0.437752   
O70      O      0.011540000000     0.695440000000     0.654140000000    -0.436308   
O71      O      0.011100000000     0.653240000000     0.696010000000    -0.437075   
O72      O      0.011500000000     0.653350000000     0.611910000000    -0.435686   
O73      O      0.011140000000     0.319610000000     0.611500000000    -0.437692   
O74      O      0.011590000000     0.319500000000     0.695530000000    -0.436086   
O75      O      0.011090000000     0.277630000000     0.653330000000    -0.4371     
O76      O      0.011550000000     0.361730000000     0.653450000000    -0.435806   
O77      O      0.962630000000     0.361990000000     0.653910000000    -0.438747   
O78      O      0.962170000000     0.277960000000     0.653950000000    -0.437328   
O79      O      0.962660000000     0.320130000000     0.695850000000    -0.437983   
O80      O      0.962220000000     0.320080000000     0.611750000000    -0.436849   
O81      O      0.011060000000     0.654030000000     0.362270000000    -0.437782   
O82      O      0.011520000000     0.654130000000     0.278240000000    -0.436136   
O83      O      0.011000000000     0.696000000000     0.320440000000    -0.437164   
O84      O      0.011500000000     0.611900000000     0.320320000000    -0.435711   
O85      O      0.962580000000     0.611630000000     0.319850000000    -0.438735   
O86      O      0.962080000000     0.695650000000     0.319820000000    -0.43745    
O87      O      0.962600000000     0.653480000000     0.277920000000    -0.438271   
O88      O      0.962140000000     0.653530000000     0.362020000000    -0.436654   
O89      O      0.962580000000     0.319820000000     0.362090000000    -0.438676   
O90      O      0.962130000000     0.319800000000     0.278060000000    -0.437304   
O91      O      0.962590000000     0.277890000000     0.320220000000    -0.438112   
O92      O      0.962190000000     0.361990000000     0.320190000000    -0.436663   
O93      O      0.011110000000     0.362210000000     0.319720000000    -0.437751   
O94      O      0.011510000000     0.278180000000     0.319600000000    -0.436292   
O95      O      0.011050000000     0.320400000000     0.277740000000    -0.43703    
O96      O      0.011500000000     0.320260000000     0.361840000000    -0.435779   
O97      O      0.985680000000     0.295860000000     0.028830000000    -0.436537   
O98      O      0.988060000000     0.295790000000     0.944790000000    -0.437831   
O99      O      0.028890000000     0.295800000000     0.988000000000    -0.436584   
O100     O      0.944850000000     0.295850000000     0.985620000000    -0.4377     
O101     O      0.944870000000     0.344750000000     0.987280000000    -0.438081   
O102     O      0.028920000000     0.344700000000     0.986270000000    -0.436812   
O103     O      0.986390000000     0.344690000000     0.944750000000    -0.43799    
O104     O      0.987400000000     0.344750000000     0.028800000000    -0.437096   
O105     O      0.987450000000     0.628960000000     0.944960000000    -0.438322   
O106     O      0.986400000000     0.629010000000     0.029010000000    -0.436884   
O107     O      0.944900000000     0.629010000000     0.986460000000    -0.437912   
O108     O      0.028950000000     0.628960000000     0.987510000000    -0.436985   
O109     O      0.028980000000     0.677850000000     0.985790000000    -0.436589   
O110     O      0.944940000000     0.677910000000     0.988120000000    -0.437872   
O111     O      0.988120000000     0.677900000000     0.028980000000    -0.436679   
O112     O      0.985790000000     0.677850000000     0.944930000000    -0.437902   
O113     O      0.986150000000     0.028970000000     0.344700000000    -0.436761   
O114     O      0.987150000000     0.944920000000     0.344750000000    -0.438262   
O115     O      0.028680000000     0.987450000000     0.344730000000    -0.436854   
O116     O      0.944620000000     0.986440000000     0.344730000000    -0.437811   
O117     O      0.944630000000     0.988100000000     0.295830000000    -0.437865   
O118     O      0.028670000000     0.985720000000     0.295830000000    -0.436572   
O119     O      0.985460000000     0.944890000000     0.295860000000    -0.43785    
O120     O      0.987840000000     0.028930000000     0.295800000000    -0.436539   
O121     O      0.944760000000     0.987210000000     0.628970000000    -0.438138   
O122     O      0.028820000000     0.986150000000     0.629000000000    -0.436677   
O123     O      0.986260000000     0.944650000000     0.629010000000    -0.43779    
O124     O      0.987320000000     0.028700000000     0.628970000000    -0.436923   
O125     O      0.985610000000     0.028720000000     0.677860000000    -0.436586   
O126     O      0.987940000000     0.944680000000     0.677910000000    -0.437941   
O127     O      0.028800000000     0.987870000000     0.677900000000    -0.436562   
O128     O      0.944750000000     0.985540000000     0.677870000000    -0.437769   
O129     O      0.628970000000     0.944960000000     0.987270000000    -0.438144   
O130     O      0.628960000000     0.029020000000     0.986210000000    -0.436651   
O131     O      0.628970000000     0.986460000000     0.944720000000    -0.43796    
O132     O      0.628950000000     0.987520000000     0.028770000000    -0.436844   
O133     O      0.677850000000     0.985830000000     0.028780000000    -0.43643    
O134     O      0.677860000000     0.988150000000     0.944730000000    -0.437926   
O135     O      0.677850000000     0.029010000000     0.987920000000    -0.436826   
O136     O      0.677860000000     0.944970000000     0.985590000000    -0.437775   
O137     O      0.295800000000     0.028720000000     0.985610000000    -0.436563   
O138     O      0.295800000000     0.944680000000     0.987990000000    -0.437946   
O139     O      0.295780000000     0.987890000000     0.028820000000    -0.436784   
O140     O      0.295820000000     0.985510000000     0.944780000000    -0.437892   
O141     O      0.344710000000     0.987210000000     0.944800000000    -0.438271   
O142     O      0.344670000000     0.986200000000     0.028850000000    -0.436789   
O143     O      0.344700000000     0.944680000000     0.986320000000    -0.438006   
O144     O      0.344690000000     0.028730000000     0.987320000000    -0.436976   


