data_structure

_audit_creation_method RASPA-1.0
_audit_creation_date 2023-5-22
_audit_author_name 'Poobodin Mano'

_cell_length_a    45.5613
_cell_length_b    45.5613
_cell_length_c    30.4099
_cell_angle_alpha 90
_cell_angle_beta  90
_cell_angle_gamma 90
_cell_volume      63125.8

_symmetry_cell_setting          triclinic
_symmetry_space_group_name_Hall 'P 1'
_symmetry_space_group_name_H-M  'P 1'
_symmetry_Int_Tables_number     1

_symmetry_equiv_pos_as_xyz 'x,y,z'

loop_
_atom_site_label
_atom_site_type_symbol
_atom_site_fract_x
_atom_site_fract_y
_atom_site_fract_z
_atom_site_charge
C1       C      0.486470000000     0.819570000000     0.070060000000     0.386493   
C2       C      0.486780000000     0.819570000000     0.902510000000     0.386408   
C3       C      0.430710000000     0.819540000000     0.985990000000     0.386523   
C4       C      0.542540000000     0.819610000000     0.986590000000     0.386623   
C5       C      0.486770000000     0.819570000000     0.402500000000     0.386413   
C6       C      0.486450000000     0.819570000000     0.570060000000     0.386425   
C7       C      0.542520000000     0.819620000000     0.486590000000     0.386633   
C8       C      0.430700000000     0.819530000000     0.485970000000     0.386623   
C9       C      0.820090000000     0.486580000000     0.069800000000     0.386533   
C10      C      0.820090000000     0.486270000000     0.902250000000     0.386464   
C11      C      0.820040000000     0.542340000000     0.985730000000     0.386628   
C12      C      0.820160000000     0.430510000000     0.986340000000     0.386578   
C13      C      0.820090000000     0.486260000000     0.402250000000     0.386501   
C14      C      0.820090000000     0.486580000000     0.569800000000     0.386551   
C15      C      0.820160000000     0.430510000000     0.486350000000     0.386634   
C16      C      0.820030000000     0.542330000000     0.485700000000     0.386738   
C17      C      0.487220000000     0.153030000000     0.070090000000     0.38644    
C18      C      0.486900000000     0.153030000000     0.902530000000     0.386466   
C19      C      0.542970000000     0.153060000000     0.985990000000     0.386655   
C20      C      0.431150000000     0.152980000000     0.986640000000     0.386662   
C21      C      0.486890000000     0.153030000000     0.402530000000     0.386446   
C22      C      0.487210000000     0.153030000000     0.570080000000     0.386531   
C23      C      0.431140000000     0.152980000000     0.486620000000     0.386676   
C24      C      0.542960000000     0.153060000000     0.485990000000     0.386641   
C25      C      0.153580000000     0.486040000000     0.070130000000     0.386445   
C26      C      0.153580000000     0.486360000000     0.902580000000     0.38676    
C27      C      0.153640000000     0.430280000000     0.986040000000     0.386489   
C28      C      0.153510000000     0.542110000000     0.986680000000     0.386659   
C29      C      0.153580000000     0.486060000000     0.570130000000     0.386485   
C30      C      0.153580000000     0.486360000000     0.402580000000     0.386807   
C31      C      0.153650000000     0.430300000000     0.486040000000     0.386618   
C32      C      0.153500000000     0.542130000000     0.486650000000     0.38654    
C33      C      0.763840000000     0.819600000000     0.986890000000     0.386391   
C34      C      0.875680000000     0.819510000000     0.986180000000     0.386501   
C35      C      0.819750000000     0.763650000000     0.985980000000     0.386311   
C36      C      0.819770000000     0.875470000000     0.986910000000     0.386545   
C37      C      0.763830000000     0.819600000000     0.486500000000     0.386711   
C38      C      0.875660000000     0.819490000000     0.485620000000     0.38659    
C39      C      0.819730000000     0.763640000000     0.485580000000     0.386604   
C40      C      0.819760000000     0.875470000000     0.486370000000     0.386598   
C41      C      0.764280000000     0.153300000000     0.986010000000     0.386337   
C42      C      0.876110000000     0.153300000000     0.986860000000     0.386537   
C43      C      0.820220000000     0.209210000000     0.986840000000     0.386553   
C44      C      0.820140000000     0.097380000000     0.986190000000     0.386414   
C45      C      0.820230000000     0.209200000000     0.486490000000     0.386617   
C46      C      0.820120000000     0.097370000000     0.485680000000     0.386324   
C47      C      0.764270000000     0.153300000000     0.485650000000     0.386649   
C48      C      0.876100000000     0.153280000000     0.486350000000     0.386288   
C49      C      0.153940000000     0.208980000000     0.986070000000     0.386562   
C50      C      0.153910000000     0.097150000000     0.986920000000     0.386431   
C51      C      0.209840000000     0.153020000000     0.986960000000     0.386543   
C52      C      0.098010000000     0.153120000000     0.986200000000     0.386522   
C53      C      0.153940000000     0.209000000000     0.485700000000     0.386571   
C54      C      0.153890000000     0.097160000000     0.486380000000     0.386502   
C55      C      0.209830000000     0.153020000000     0.486580000000     0.386583   
C56      C      0.098000000000     0.153150000000     0.485670000000     0.386556   
C57      C      0.209410000000     0.819320000000     0.986090000000     0.386579   
C58      C      0.097580000000     0.819330000000     0.986930000000     0.386498   
C59      C      0.153450000000     0.763420000000     0.986970000000     0.386573   
C60      C      0.153550000000     0.875250000000     0.986220000000     0.386421   
C61      C      0.153430000000     0.763430000000     0.486550000000     0.38663    
C62      C      0.153550000000     0.875260000000     0.485650000000     0.386559   
C63      C      0.209390000000     0.819320000000     0.485670000000     0.386621   
C64      C      0.097560000000     0.819360000000     0.486360000000     0.386556   
C65      C      0.145520000000     0.954150000000     0.447930000000    -0.0680696  
C66      C      0.153710000000     0.969850000000     0.485880000000     0.023922   
C67      C      0.161900000000     0.954000000000     0.523650000000    -0.0682676  
C68      C      0.161690000000     0.923340000000     0.523590000000     0.0286508  
C69      C      0.153660000000     0.907740000000     0.485600000000    -0.114752   
C70      C      0.145690000000     0.923470000000     0.447710000000     0.0286208  
C71      C      0.153750000000     0.002570000000     0.486060000000     0.0238792  
C72      C      0.162020000000     0.018410000000     0.448320000000    -0.0681975  
C73      C      0.161910000000     0.049070000000     0.448390000000     0.0286212  
C74      C      0.153910000000     0.064690000000     0.486390000000    -0.114821   
C75      C      0.145860000000     0.048970000000     0.524250000000     0.0286376  
C76      C      0.145580000000     0.018290000000     0.524000000000    -0.0680408  
C77      C      0.145630000000     0.018290000000     0.024620000000    -0.0679642  
C78      C      0.153770000000     0.002560000000     0.986680000000     0.0238416  
C79      C      0.162030000000     0.018380000000     0.948920000000    -0.0682689  
C80      C      0.161920000000     0.049040000000     0.948980000000     0.0286672  
C81      C      0.153940000000     0.064670000000     0.986970000000    -0.114834   
C82      C      0.145910000000     0.048970000000     0.024850000000     0.0287132  
C83      C      0.153710000000     0.969840000000     0.986500000000     0.0238265  
C84      C      0.161920000000     0.953980000000     0.024260000000    -0.0681771  
C85      C      0.161700000000     0.923320000000     0.024190000000     0.0287756  
C86      C      0.153660000000     0.907720000000     0.986200000000    -0.114943   
C87      C      0.145670000000     0.923460000000     0.948330000000     0.0286891  
C88      C      0.145500000000     0.954140000000     0.948560000000    -0.0680837  
C89      C      0.954980000000     0.145050000000     0.524000000000    -0.0680309  
C90      C      0.970690000000     0.153240000000     0.486060000000     0.0238875  
C91      C      0.954850000000     0.161480000000     0.448310000000    -0.0682036  
C92      C      0.924190000000     0.161330000000     0.448370000000     0.0285549  
C93      C      0.908580000000     0.153320000000     0.486370000000    -0.114627   
C94      C      0.924300000000     0.145300000000     0.524240000000     0.02858    
C95      C      0.003410000000     0.153230000000     0.485880000000     0.0239087  
C96      C      0.019250000000     0.161450000000     0.523650000000    -0.0682674  
C97      C      0.049910000000     0.161260000000     0.523600000000     0.0286923  
C98      C      0.065530000000     0.153250000000     0.485610000000    -0.114866   
C99      C      0.049810000000     0.145260000000     0.447720000000     0.0286579  
C100     C      0.019130000000     0.145050000000     0.447940000000    -0.0680657  
C101     C      0.954970000000     0.145090000000     0.024580000000    -0.0679814  
C102     C      0.970700000000     0.153240000000     0.986640000000     0.0238267  
C103     C      0.954870000000     0.161480000000     0.948870000000    -0.0682622  
C104     C      0.924210000000     0.161330000000     0.948920000000     0.0286856  
C105     C      0.908580000000     0.153350000000     0.986920000000    -0.114953   
C106     C      0.924290000000     0.145340000000     0.024800000000     0.0287802  
C107     C      0.003420000000     0.153210000000     0.986460000000     0.0238509  
C108     C      0.019260000000     0.161440000000     0.024220000000    -0.0681719  
C109     C      0.049930000000     0.161250000000     0.024160000000     0.0286828  
C110     C      0.065530000000     0.153210000000     0.986170000000    -0.114811   
C111     C      0.049810000000     0.145200000000     0.948300000000     0.0286154  
C112     C      0.019120000000     0.145000000000     0.948530000000    -0.0680666  
C113     C      0.954410000000     0.811200000000     0.523620000000    -0.0682861  
C114     C      0.970250000000     0.819420000000     0.485850000000     0.023915   
C115     C      0.954540000000     0.827600000000     0.447910000000    -0.0680531  
C116     C      0.923860000000     0.827390000000     0.447680000000     0.0286415  
C117     C      0.908130000000     0.819400000000     0.485570000000    -0.114844   
C118     C      0.923740000000     0.811380000000     0.523560000000     0.0286651  
C119     C      0.002970000000     0.819410000000     0.486040000000     0.023923   
C120     C      0.018680000000     0.827590000000     0.523980000000    -0.0680675  
C121     C      0.049360000000     0.827350000000     0.524230000000     0.0286439  
C122     C      0.065080000000     0.819320000000     0.486370000000    -0.114758   
C123     C      0.049480000000     0.811310000000     0.448370000000     0.0286247  
C124     C      0.018810000000     0.811170000000     0.448290000000    -0.0682612  
C125     C      0.828070000000     0.954330000000     0.524040000000    -0.0680788  
C126     C      0.819900000000     0.970060000000     0.486110000000     0.0239129  
C127     C      0.811620000000     0.954230000000     0.448350000000    -0.0682772  
C128     C      0.811730000000     0.923570000000     0.448420000000     0.0286808  
C129     C      0.819730000000     0.907940000000     0.486410000000    -0.114872   
C130     C      0.827790000000     0.923650000000     0.524270000000     0.0286941  
C131     C      0.819960000000     0.002780000000     0.485930000000     0.0238868  
C132     C      0.811770000000     0.018630000000     0.523700000000    -0.068225   
C133     C      0.811990000000     0.049290000000     0.523640000000     0.028574   
C134     C      0.820010000000     0.064890000000     0.485640000000    -0.114633   
C135     C      0.827980000000     0.049160000000     0.447750000000     0.0285577  
C136     C      0.828150000000     0.018480000000     0.447980000000    -0.0680249  
C137     C      0.954570000000     0.827640000000     0.948540000000    -0.0681083  
C138     C      0.970270000000     0.819430000000     0.986480000000     0.0238403  
C139     C      0.954410000000     0.811190000000     0.024230000000    -0.0682083  
C140     C      0.923750000000     0.811390000000     0.024150000000     0.0288069  
C141     C      0.908150000000     0.819420000000     0.986160000000    -0.114964   
C142     C      0.923890000000     0.827440000000     0.948300000000     0.0287044  
C143     C      0.002990000000     0.819390000000     0.986670000000     0.0238379  
C144     C      0.018820000000     0.811160000000     0.948910000000    -0.0682824  
C145     C      0.049480000000     0.811300000000     0.948970000000     0.0286432  
C146     C      0.065100000000     0.819290000000     0.986970000000    -0.114828   
C147     C      0.049390000000     0.827300000000     0.024850000000     0.0287136  
C148     C      0.018710000000     0.827550000000     0.024620000000    -0.0679638  
C149     C      0.811640000000     0.954250000000     0.948930000000    -0.068276   
C150     C      0.819910000000     0.970070000000     0.986700000000     0.0238259  
C151     C      0.828050000000     0.954330000000     0.024640000000    -0.067966   
C152     C      0.827770000000     0.923650000000     0.024860000000     0.0287115  
C153     C      0.819730000000     0.907950000000     0.986980000000    -0.114826   
C154     C      0.811750000000     0.923580000000     0.948990000000     0.0286363  
C155     C      0.819980000000     0.002790000000     0.986520000000     0.0238124  
C156     C      0.828200000000     0.018480000000     0.948570000000    -0.0680018  
C157     C      0.828030000000     0.049160000000     0.948320000000     0.0285765  
C158     C      0.820040000000     0.064900000000     0.986190000000    -0.114781   
C159     C      0.812000000000     0.049310000000     0.024190000000     0.0286986  
C160     C      0.811780000000     0.018650000000     0.024270000000    -0.0681606  
C161     C      0.178340000000     0.620940000000     0.500720000000    -0.0688319  
C162     C      0.153340000000     0.636530000000     0.487130000000     0.0240326  
C163     C      0.128390000000     0.620910000000     0.473450000000    -0.0688123  
C164     C      0.128350000000     0.590230000000     0.473670000000     0.0289511  
C165     C      0.153440000000     0.574590000000     0.486850000000    -0.114985   
C166     C      0.178480000000     0.590260000000     0.500230000000     0.0288891  
C167     C      0.153330000000     0.669030000000     0.487060000000     0.0240171  
C168     C      0.162560000000     0.684700000000     0.524340000000    -0.068755   
C169     C      0.162340000000     0.715380000000     0.524350000000     0.0288534  
C170     C      0.153360000000     0.730970000000     0.486790000000    -0.115017   
C171     C      0.144350000000     0.715230000000     0.449380000000     0.0287945  
C172     C      0.144100000000     0.684560000000     0.449660000000    -0.0688691  
C173     C      0.163050000000     0.287770000000     0.448100000000    -0.0687663  
C174     C      0.153770000000     0.303400000000     0.485410000000     0.0239545  
C175     C      0.144550000000     0.287810000000     0.522770000000    -0.06882    
C176     C      0.144830000000     0.257140000000     0.522980000000     0.0287925  
C177     C      0.153880000000     0.241460000000     0.485540000000    -0.115035   
C178     C      0.162860000000     0.257090000000     0.448030000000     0.0288972  
C179     C      0.153710000000     0.335900000000     0.485400000000     0.0240828  
C180     C      0.178680000000     0.351550000000     0.471860000000    -0.068871   
C181     C      0.178750000000     0.382230000000     0.472420000000     0.0289159  
C182     C      0.153670000000     0.397840000000     0.485800000000    -0.114997   
C183     C      0.128610000000     0.382120000000     0.498940000000     0.0289735  
C184     C      0.128720000000     0.351450000000     0.499090000000    -0.0688613  
C185     C      0.162600000000     0.684650000000     0.024620000000    -0.0686182  
C186     C      0.153350000000     0.669010000000     0.987320000000     0.0238652  
C187     C      0.144110000000     0.684580000000     0.949950000000    -0.0687728  
C188     C      0.144360000000     0.715250000000     0.949730000000     0.028739   
C189     C      0.153390000000     0.730950000000     0.987160000000    -0.114963   
C190     C      0.162380000000     0.715340000000     0.024690000000     0.0288512  
C191     C      0.153360000000     0.636510000000     0.987330000000     0.0239808  
C192     C      0.178360000000     0.620910000000     0.000870000000    -0.0687368  
C193     C      0.178500000000     0.590230000000     0.000320000000     0.0289871  
C194     C      0.153460000000     0.574570000000     0.986930000000    -0.115083   
C195     C      0.128360000000     0.590230000000     0.973790000000     0.0289421  
C196     C      0.128410000000     0.620900000000     0.973630000000    -0.0688155  
C197     C      0.144550000000     0.287830000000     0.023000000000    -0.0687308  
C198     C      0.153760000000     0.303380000000     0.985610000000     0.0238695  
C199     C      0.163020000000     0.287730000000     0.948320000000    -0.0687082  
C200     C      0.162840000000     0.257040000000     0.948300000000     0.0288117  
C201     C      0.153870000000     0.241440000000     0.985850000000    -0.11507    
C202     C      0.144840000000     0.257160000000     0.023270000000     0.028853   
C203     C      0.153700000000     0.335880000000     0.985540000000     0.0240988  
C204     C      0.128710000000     0.351440000000     0.999210000000    -0.06895    
C205     C      0.128600000000     0.382120000000     0.999000000000     0.028868   
C206     C      0.153660000000     0.397820000000     0.985830000000    -0.114966   
C207     C      0.178730000000     0.382210000000     0.972450000000     0.0288859  
C208     C      0.178660000000     0.351530000000     0.971960000000    -0.0688378  
C209     C      0.128320000000     0.477920000000     0.688220000000    -0.0682736  
C210     C      0.153580000000     0.486180000000     0.711840000000     0.0238914  
C211     C      0.178840000000     0.494370000000     0.688180000000    -0.0682211  
C212     C      0.178900000000     0.494110000000     0.642230000000     0.0287074  
C213     C      0.153590000000     0.486060000000     0.618780000000    -0.114868   
C214     C      0.128270000000     0.478070000000     0.642270000000     0.0287131  
C215     C      0.153580000000     0.486250000000     0.760860000000     0.0238829  
C216     C      0.128300000000     0.494440000000     0.784480000000    -0.0682334  
C217     C      0.128250000000     0.494300000000     0.830440000000     0.0286602  
C218     C      0.153590000000     0.486360000000     0.853920000000    -0.114888   
C219     C      0.178920000000     0.478380000000     0.830470000000     0.0287138  
C220     C      0.178860000000     0.478120000000     0.784520000000    -0.0682264  
C221     C      0.128330000000     0.477900000000     0.188230000000    -0.0681544  
C222     C      0.153590000000     0.486160000000     0.211840000000     0.0238683  
C223     C      0.178850000000     0.494340000000     0.188180000000    -0.0682068  
C224     C      0.178910000000     0.494080000000     0.142230000000     0.0286338  
C225     C      0.153590000000     0.486040000000     0.118780000000    -0.114764   
C226     C      0.128270000000     0.478040000000     0.142270000000     0.0285893  
C227     C      0.153590000000     0.486230000000     0.260860000000     0.0238921  
C228     C      0.128310000000     0.494430000000     0.284480000000    -0.0681949  
C229     C      0.128250000000     0.494290000000     0.330440000000     0.0286632  
C230     C      0.153590000000     0.486360000000     0.353920000000    -0.114887   
C231     C      0.178920000000     0.478370000000     0.330480000000     0.028709   
C232     C      0.178870000000     0.478110000000     0.284520000000    -0.0682542  
C233     C      0.288690000000     0.143660000000     0.449680000000    -0.0687605  
C234     C      0.304240000000     0.152880000000     0.487080000000     0.0239271  
C235     C      0.288570000000     0.162120000000     0.524370000000    -0.0687135  
C236     C      0.257890000000     0.161910000000     0.524380000000     0.0288034  
C237     C      0.242300000000     0.152940000000     0.486820000000    -0.114896   
C238     C      0.258020000000     0.143920000000     0.449410000000     0.0287389  
C239     C      0.336740000000     0.152870000000     0.487140000000     0.0240545  
C240     C      0.352340000000     0.127910000000     0.473460000000    -0.0687811  
C241     C      0.383020000000     0.127850000000     0.473660000000     0.0288866  
C242     C      0.398680000000     0.152940000000     0.486840000000    -0.114986   
C243     C      0.383020000000     0.177980000000     0.500230000000     0.0289154  
C244     C      0.352340000000     0.177860000000     0.500730000000    -0.0688319  
C245     C      0.685490000000     0.162400000000     0.448030000000    -0.0687702  
C246     C      0.669870000000     0.153130000000     0.485340000000     0.0240179  
C247     C      0.685450000000     0.143910000000     0.522700000000    -0.0688285  
C248     C      0.716120000000     0.144190000000     0.522910000000     0.0288199  
C249     C      0.731810000000     0.153230000000     0.485480000000    -0.115037   
C250     C      0.716180000000     0.162210000000     0.447960000000     0.0288518  
C251     C      0.637370000000     0.153090000000     0.485330000000     0.0239621  
C252     C      0.621720000000     0.178050000000     0.471780000000    -0.0687436  
C253     C      0.591040000000     0.178140000000     0.472340000000     0.0288173  
C254     C      0.575430000000     0.153070000000     0.485730000000    -0.114835   
C255     C      0.591130000000     0.128000000000     0.498880000000     0.0288296  
C256     C      0.621800000000     0.128100000000     0.499030000000    -0.0687081  
C257     C      0.352340000000     0.127910000000     0.973610000000    -0.068764   
C258     C      0.336740000000     0.152880000000     0.987310000000     0.0239004  
C259     C      0.352360000000     0.177870000000     0.000850000000    -0.06869    
C260     C      0.383040000000     0.178000000000     0.000290000000     0.0289266  
C261     C      0.398680000000     0.152950000000     0.986900000000    -0.114967   
C262     C      0.383020000000     0.127860000000     0.973760000000     0.0288853  
C263     C      0.304240000000     0.152880000000     0.987300000000     0.0239604  
C264     C      0.288670000000     0.143650000000     0.949940000000    -0.0688599  
C265     C      0.258000000000     0.143910000000     0.949720000000     0.0288264  
C266     C      0.242300000000     0.152940000000     0.987150000000    -0.115111   
C267     C      0.257920000000     0.161930000000     0.024670000000     0.0289555  
C268     C      0.288610000000     0.162140000000     0.024610000000    -0.0687155  
C269     C      0.621740000000     0.178040000000     0.971880000000    -0.0688403  
C270     C      0.637370000000     0.153080000000     0.985470000000     0.0241326  
C271     C      0.621800000000     0.128100000000     0.999160000000    -0.0689321  
C272     C      0.591130000000     0.128000000000     0.998960000000     0.0288683  
C273     C      0.575430000000     0.153060000000     0.985770000000    -0.114972   
C274     C      0.591060000000     0.178130000000     0.972390000000     0.0288519  
C275     C      0.669870000000     0.153120000000     0.985540000000     0.0237743  
C276     C      0.685530000000     0.162370000000     0.948240000000    -0.0686446  
C277     C      0.716210000000     0.162190000000     0.948230000000     0.0287472  
C278     C      0.731810000000     0.153220000000     0.985780000000    -0.114875   
C279     C      0.716100000000     0.144200000000     0.023200000000     0.0287586  
C280     C      0.685430000000     0.143920000000     0.022940000000    -0.0686388  
C281     C      0.495160000000     0.178300000000     0.784480000000    -0.0682623  
C282     C      0.487020000000     0.153030000000     0.760820000000     0.0239087  
C283     C      0.478810000000     0.127750000000     0.784440000000    -0.068248   
C284     C      0.478950000000     0.127700000000     0.830390000000     0.0287111  
C285     C      0.486900000000     0.153030000000     0.853880000000    -0.114871   
C286     C      0.494900000000     0.178360000000     0.830430000000     0.0286916  
C287     C      0.487090000000     0.153030000000     0.711800000000     0.0238514  
C288     C      0.478920000000     0.178290000000     0.688140000000    -0.0681985  
C289     C      0.479180000000     0.178350000000     0.642190000000     0.0286306  
C290     C      0.487210000000     0.153030000000     0.618740000000    -0.11476    
C291     C      0.495200000000     0.127710000000     0.642220000000     0.028602   
C292     C      0.495340000000     0.127770000000     0.688180000000    -0.0681432  
C293     C      0.495160000000     0.178310000000     0.284480000000    -0.0681927  
C294     C      0.487030000000     0.153030000000     0.260820000000     0.023886   
C295     C      0.478820000000     0.127760000000     0.284430000000    -0.0681934  
C296     C      0.478950000000     0.127700000000     0.330390000000     0.0286045  
C297     C      0.486900000000     0.153040000000     0.353880000000    -0.114793   
C298     C      0.494900000000     0.178370000000     0.330440000000     0.0286274  
C299     C      0.487100000000     0.153030000000     0.211800000000     0.0238662  
C300     C      0.478930000000     0.178300000000     0.188140000000    -0.0681952  
C301     C      0.479190000000     0.178360000000     0.142190000000     0.0286466  
C302     C      0.487220000000     0.153040000000     0.118740000000    -0.114814   
C303     C      0.495210000000     0.127720000000     0.142220000000     0.0286554  
C304     C      0.495350000000     0.127770000000     0.188180000000    -0.0681982  
C305     C      0.795320000000     0.351700000000     0.500500000000    -0.0686921  
C306     C      0.820320000000     0.336100000000     0.486930000000     0.0239351  
C307     C      0.845270000000     0.351720000000     0.473230000000    -0.0687268  
C308     C      0.845310000000     0.382390000000     0.473410000000     0.0288808  
C309     C      0.820220000000     0.398040000000     0.486580000000    -0.114854   
C310     C      0.795180000000     0.382380000000     0.499970000000     0.0287952  
C311     C      0.820330000000     0.303600000000     0.486900000000     0.0240562  
C312     C      0.811090000000     0.287950000000     0.524200000000    -0.0687793  
C313     C      0.811310000000     0.257270000000     0.524240000000     0.028871   
C314     C      0.820290000000     0.241660000000     0.486700000000    -0.115035   
C315     C      0.829310000000     0.257380000000     0.449280000000     0.0288353  
C316     C      0.829560000000     0.288050000000     0.449520000000    -0.0689016  
C317     C      0.810630000000     0.684870000000     0.447890000000    -0.068706   
C318     C      0.819910000000     0.669230000000     0.485180000000     0.0239541  
C319     C      0.829130000000     0.684800000000     0.522560000000    -0.0688078  
C320     C      0.828850000000     0.715470000000     0.522800000000     0.02874    
C321     C      0.819800000000     0.731170000000     0.485380000000    -0.114881   
C322     C      0.810810000000     0.715560000000     0.447850000000     0.0287738  
C323     C      0.819970000000     0.636730000000     0.485130000000     0.0240456  
C324     C      0.795010000000     0.621080000000     0.471580000000    -0.0687511  
C325     C      0.794930000000     0.590400000000     0.472100000000     0.0288431  
C326     C      0.820010000000     0.574790000000     0.485470000000    -0.114985   
C327     C      0.845070000000     0.590500000000     0.498620000000     0.0289373  
C328     C      0.844960000000     0.621180000000     0.498810000000    -0.0688088  
C329     C      0.845260000000     0.351710000000     0.973360000000    -0.0688091  
C330     C      0.820300000000     0.336110000000     0.987060000000     0.0239568  
C331     C      0.795300000000     0.351720000000     0.000590000000    -0.0687098  
C332     C      0.795160000000     0.382400000000     0.000010000000     0.0289747  
C333     C      0.820200000000     0.398050000000     0.986600000000    -0.115074   
C334     C      0.845300000000     0.382390000000     0.973480000000     0.0289127  
C335     C      0.820320000000     0.303610000000     0.987090000000     0.023895   
C336     C      0.829560000000     0.288030000000     0.949740000000    -0.068815   
C337     C      0.829320000000     0.257360000000     0.949550000000     0.0287499  
C338     C      0.820290000000     0.241670000000     0.987000000000    -0.115049   
C339     C      0.811290000000     0.257300000000     0.024510000000     0.0288656  
C340     C      0.811070000000     0.287990000000     0.024410000000    -0.0685949  
C341     C      0.844980000000     0.621170000000     0.998980000000    -0.0689249  
C342     C      0.819990000000     0.636740000000     0.985320000000     0.0241006  
C343     C      0.795030000000     0.621100000000     0.971720000000    -0.0688344  
C344     C      0.794960000000     0.590420000000     0.972180000000     0.0288975  
C345     C      0.820030000000     0.574800000000     0.985550000000    -0.114988   
C346     C      0.845090000000     0.590500000000     0.998740000000     0.0288711  
C347     C      0.819930000000     0.669240000000     0.985420000000     0.0238006  
C348     C      0.829140000000     0.684780000000     0.022840000000    -0.0686719  
C349     C      0.828850000000     0.715450000000     0.023130000000     0.0287984  
C350     C      0.819820000000     0.731180000000     0.985740000000    -0.114871   
C351     C      0.810850000000     0.715600000000     0.948170000000     0.028719   
C352     C      0.810670000000     0.684910000000     0.948150000000    -0.0686361  
C353     C      0.794810000000     0.494520000000     0.784200000000    -0.068248   
C354     C      0.820090000000     0.486400000000     0.760540000000     0.0239172  
C355     C      0.845370000000     0.478200000000     0.784150000000    -0.0682721  
C356     C      0.845420000000     0.478340000000     0.830110000000     0.0287172  
C357     C      0.820090000000     0.486280000000     0.853600000000    -0.114856   
C358     C      0.794750000000     0.494270000000     0.830150000000     0.0286587  
C359     C      0.820090000000     0.486470000000     0.711520000000     0.0238669  
C360     C      0.794830000000     0.478280000000     0.687860000000    -0.0682017  
C361     C      0.794770000000     0.478540000000     0.641900000000     0.028654   
C362     C      0.820090000000     0.486580000000     0.618450000000    -0.114861   
C363     C      0.845400000000     0.494580000000     0.641940000000     0.028694   
C364     C      0.845350000000     0.494720000000     0.687900000000    -0.0682222  
C365     C      0.794810000000     0.494500000000     0.284200000000    -0.0682312  
C366     C      0.820090000000     0.486380000000     0.260540000000     0.023897   
C367     C      0.845370000000     0.478180000000     0.284150000000    -0.0682344  
C368     C      0.845420000000     0.478320000000     0.330110000000     0.0286476  
C369     C      0.820080000000     0.486260000000     0.353600000000    -0.114842   
C370     C      0.794750000000     0.494250000000     0.330150000000     0.0286891  
C371     C      0.820090000000     0.486450000000     0.211520000000     0.0238836  
C372     C      0.794830000000     0.478270000000     0.187860000000    -0.0681762  
C373     C      0.794770000000     0.478530000000     0.141900000000     0.0286218  
C374     C      0.820090000000     0.486580000000     0.118460000000    -0.114786   
C375     C      0.845400000000     0.494570000000     0.141940000000     0.0287175  
C376     C      0.845350000000     0.494710000000     0.187900000000    -0.0682734  
C377     C      0.288220000000     0.828710000000     0.522720000000    -0.0688934  
C378     C      0.303790000000     0.819480000000     0.485360000000     0.0240309  
C379     C      0.288170000000     0.810200000000     0.448050000000    -0.0687406  
C380     C      0.257480000000     0.810400000000     0.447980000000     0.0288058  
C381     C      0.241850000000     0.819390000000     0.485500000000    -0.115006   
C382     C      0.257550000000     0.828430000000     0.522930000000     0.0288102  
C383     C      0.336290000000     0.819520000000     0.485340000000     0.0239809  
C384     C      0.351860000000     0.844500000000     0.499030000000    -0.0687559  
C385     C      0.382530000000     0.844600000000     0.498870000000     0.0288438  
C386     C      0.398230000000     0.819520000000     0.485730000000    -0.114866   
C387     C      0.382620000000     0.794460000000     0.472350000000     0.0288936  
C388     C      0.351940000000     0.794540000000     0.471800000000    -0.0687725  
C389     C      0.621320000000     0.844690000000     0.473410000000    -0.0688145  
C390     C      0.636920000000     0.819730000000     0.487080000000     0.0240449  
C391     C      0.621320000000     0.794740000000     0.500660000000    -0.0687672  
C392     C      0.590640000000     0.794610000000     0.500160000000     0.028838   
C393     C      0.574980000000     0.819660000000     0.486790000000    -0.114947   
C394     C      0.590640000000     0.844750000000     0.473620000000     0.028896   
C395     C      0.669420000000     0.819720000000     0.487010000000     0.0239761  
C396     C      0.684960000000     0.828950000000     0.449610000000    -0.0688345  
C397     C      0.715640000000     0.828690000000     0.449340000000     0.0287966  
C398     C      0.731370000000     0.819670000000     0.486740000000    -0.11501    
C399     C      0.715780000000     0.810680000000     0.524300000000     0.028806   
C400     C      0.685090000000     0.810470000000     0.524290000000    -0.0687292  
C401     C      0.351890000000     0.844500000000     0.999200000000    -0.0688881  
C402     C      0.336310000000     0.819520000000     0.985530000000     0.0240816  
C403     C      0.351950000000     0.794550000000     0.971940000000    -0.068894   
C404     C      0.382620000000     0.794470000000     0.972420000000     0.0289519  
C405     C      0.398250000000     0.819530000000     0.985790000000    -0.114972   
C406     C      0.382560000000     0.844600000000     0.998980000000     0.0288246  
C407     C      0.303810000000     0.819480000000     0.985600000000     0.0238596  
C408     C      0.288260000000     0.828690000000     0.023010000000    -0.0687621  
C409     C      0.257590000000     0.828410000000     0.023270000000     0.0289036  
C410     C      0.241870000000     0.819380000000     0.985860000000    -0.115118   
C411     C      0.257470000000     0.810410000000     0.948310000000     0.0288693  
C412     C      0.288150000000     0.810220000000     0.948320000000    -0.0687123  
C413     C      0.621330000000     0.794730000000     0.000770000000    -0.0687199  
C414     C      0.636940000000     0.819720000000     0.987230000000     0.0239659  
C415     C      0.621340000000     0.844680000000     0.973540000000    -0.0687886  
C416     C      0.590670000000     0.844740000000     0.973700000000     0.0289565  
C417     C      0.575000000000     0.819650000000     0.986830000000    -0.115079   
C418     C      0.590650000000     0.794600000000     0.000220000000     0.0289717  
C419     C      0.669440000000     0.819720000000     0.987220000000     0.0238881  
C420     C      0.685080000000     0.810460000000     0.024520000000    -0.068605   
C421     C      0.715760000000     0.810670000000     0.024590000000     0.0288862  
C422     C      0.731380000000     0.819670000000     0.987070000000    -0.11506    
C423     C      0.715680000000     0.828710000000     0.949650000000     0.0288123  
C424     C      0.685010000000     0.828960000000     0.949860000000    -0.0688263  
C425     C      0.478510000000     0.794290000000     0.784460000000    -0.0681901  
C426     C      0.486650000000     0.819570000000     0.760800000000     0.0238773  
C427     C      0.494850000000     0.844840000000     0.784410000000    -0.068211   
C428     C      0.494720000000     0.844890000000     0.830370000000     0.0286271  
C429     C      0.486770000000     0.819560000000     0.853850000000    -0.114752   
C430     C      0.478770000000     0.794230000000     0.830410000000     0.0286427  
C431     C      0.486570000000     0.819570000000     0.711770000000     0.0238962  
C432     C      0.494750000000     0.794300000000     0.688120000000    -0.0682471  
C433     C      0.494490000000     0.794240000000     0.642160000000     0.0286589  
C434     C      0.486450000000     0.819560000000     0.618710000000    -0.114831   
C435     C      0.478470000000     0.844880000000     0.642200000000     0.0286794  
C436     C      0.478330000000     0.844830000000     0.688150000000    -0.0682211  
C437     C      0.478510000000     0.794290000000     0.284450000000    -0.068181   
C438     C      0.486650000000     0.819570000000     0.260790000000     0.0238512  
C439     C      0.494860000000     0.844840000000     0.284410000000    -0.068166   
C440     C      0.494710000000     0.844900000000     0.330370000000     0.0285848  
C441     C      0.486760000000     0.819560000000     0.353850000000    -0.114787   
C442     C      0.478770000000     0.794230000000     0.330410000000     0.0286382  
C443     C      0.486580000000     0.819570000000     0.211770000000     0.0239156  
C444     C      0.494760000000     0.794300000000     0.188120000000    -0.0682098  
C445     C      0.494510000000     0.794240000000     0.142160000000     0.0286193  
C446     C      0.486470000000     0.819560000000     0.118710000000    -0.114778   
C447     C      0.478490000000     0.844890000000     0.142200000000     0.0286324  
C448     C      0.478340000000     0.844830000000     0.188160000000    -0.0682442  
H1       H      0.168890000000     0.965240000000     0.553220000000     0.0469503  
H2       H      0.168190000000     0.911870000000     0.553230000000     0.0339818  
H3       H      0.139170000000     0.912080000000     0.418010000000     0.034261   
H4       H      0.138560000000     0.965520000000     0.418460000000     0.0470674  
H5       H      0.169000000000     0.007150000000     0.418750000000     0.0469194  
H6       H      0.168470000000     0.060540000000     0.418780000000     0.0339879  
H7       H      0.139350000000     0.060370000000     0.553950000000     0.0342684  
H8       H      0.138560000000     0.006940000000     0.553460000000     0.0470518  
H9       H      0.168990000000     0.007120000000     0.919350000000     0.0469468  
H10      H      0.168470000000     0.060500000000     0.919340000000     0.0339721  
H11      H      0.139410000000     0.060380000000     0.054550000000     0.0342593  
H12      H      0.138620000000     0.006940000000     0.054090000000     0.0470432  
H13      H      0.168920000000     0.965220000000     0.053830000000     0.0469377  
H14      H      0.168210000000     0.911830000000     0.053820000000     0.033972   
H15      H      0.139130000000     0.912080000000     0.918620000000     0.0342383  
H16      H      0.138520000000     0.965510000000     0.919100000000     0.0470636  
H17      H      0.966100000000     0.168460000000     0.418740000000     0.0469322  
H18      H      0.912720000000     0.167870000000     0.418750000000     0.034007   
H19      H      0.912900000000     0.138780000000     0.553940000000     0.0342865  
H20      H      0.966340000000     0.138050000000     0.553460000000     0.047054   
H21      H      0.008000000000     0.168430000000     0.553220000000     0.0469453  
H22      H      0.061380000000     0.167780000000     0.553240000000     0.0339667  
H23      H      0.061210000000     0.138740000000     0.418030000000     0.0342532  
H24      H      0.007770000000     0.138070000000     0.418470000000     0.047064   
H25      H      0.966130000000     0.168440000000     0.919300000000     0.0469442  
H26      H      0.912750000000     0.167860000000     0.919280000000     0.0339679  
H27      H      0.912890000000     0.138850000000     0.054510000000     0.0342425  
H28      H      0.966320000000     0.138100000000     0.054060000000     0.0470493  
H29      H      0.008020000000     0.168440000000     0.053780000000     0.0469501  
H30      H      0.061400000000     0.167780000000     0.053780000000     0.0339825  
H31      H      0.061190000000     0.138670000000     0.918600000000     0.0342627  
H32      H      0.007760000000     0.138010000000     0.919070000000     0.0470637  
H33      H      0.965900000000     0.834590000000     0.418440000000     0.0470543  
H34      H      0.912460000000     0.833910000000     0.417980000000     0.034265   
H35      H      0.912270000000     0.804860000000     0.553190000000     0.0339846  
H36      H      0.965650000000     0.804210000000     0.553180000000     0.0469684  
H37      H      0.007320000000     0.834590000000     0.553440000000     0.0470621  
H38      H      0.060750000000     0.833860000000     0.553940000000     0.0342571  
H39      H      0.060950000000     0.804770000000     0.418750000000     0.0339934  
H40      H      0.007570000000     0.804190000000     0.418720000000     0.0469583  
H41      H      0.804650000000     0.965490000000     0.418790000000     0.0469616  
H42      H      0.805170000000     0.912110000000     0.418800000000     0.033977   
H43      H      0.834300000000     0.912250000000     0.553970000000     0.0342505  
H44      H      0.835090000000     0.965680000000     0.553500000000     0.0470615  
H45      H      0.804780000000     0.007390000000     0.553270000000     0.0469396  
H46      H      0.805490000000     0.060770000000     0.553270000000     0.0340039  
H47      H      0.834500000000     0.060550000000     0.418050000000     0.0342927  
H48      H      0.835110000000     0.007110000000     0.418510000000     0.0470585  
H49      H      0.965650000000     0.804200000000     0.053800000000     0.0469523  
H50      H      0.912270000000     0.804850000000     0.053770000000     0.0339656  
H51      H      0.912500000000     0.833970000000     0.918590000000     0.0342495  
H52      H      0.965940000000     0.834630000000     0.919090000000     0.0470769  
H53      H      0.007570000000     0.804200000000     0.919340000000     0.0469607  
H54      H      0.060950000000     0.804770000000     0.919340000000     0.0339871  
H55      H      0.060790000000     0.833790000000     0.054560000000     0.0342627  
H56      H      0.007350000000     0.834540000000     0.054090000000     0.0470458  
H57      H      0.835050000000     0.965680000000     0.054110000000     0.0470524  
H58      H      0.834260000000     0.912240000000     0.054560000000     0.0342593  
H59      H      0.805210000000     0.912130000000     0.919350000000     0.0339853  
H60      H      0.804690000000     0.965510000000     0.919370000000     0.0469706  
H61      H      0.835180000000     0.007100000000     0.919110000000     0.0470339  
H62      H      0.834570000000     0.060530000000     0.918620000000     0.0342772  
H63      H      0.805480000000     0.060800000000     0.053810000000     0.0339817  
H64      H      0.804770000000     0.007420000000     0.053840000000     0.0469371  
H65      H      0.108780000000     0.632440000000     0.463080000000     0.0479483  
H66      H      0.108750000000     0.578780000000     0.463060000000     0.0338927  
H67      H      0.198120000000     0.578830000000     0.510720000000     0.0338489  
H68      H      0.197910000000     0.632500000000     0.511150000000     0.0479017  
H69      H      0.169610000000     0.673200000000     0.553680000000     0.0479953  
H70      H      0.169490000000     0.726880000000     0.553630000000     0.034203   
H71      H      0.137220000000     0.726610000000     0.419990000000     0.0338532  
H72      H      0.137060000000     0.672970000000     0.420400000000     0.0479088  
H73      H      0.137470000000     0.299370000000     0.552040000000     0.0478822  
H74      H      0.137690000000     0.245730000000     0.552340000000     0.0338534  
H75      H      0.170040000000     0.245630000000     0.418730000000     0.0341849  
H76      H      0.170090000000     0.299310000000     0.418800000000     0.0480142  
H77      H      0.198280000000     0.340040000000     0.461430000000     0.0479113  
H78      H      0.198370000000     0.393720000000     0.461960000000     0.0338494  
H79      H      0.108980000000     0.393520000000     0.509550000000     0.0338991  
H80      H      0.109140000000     0.339860000000     0.509430000000     0.0479635  
H81      H      0.137050000000     0.673000000000     0.920680000000     0.0478614  
H82      H      0.137210000000     0.726650000000     0.920360000000     0.0338667  
H83      H      0.169550000000     0.726810000000     0.053980000000     0.034213   
H84      H      0.169660000000     0.673130000000     0.053930000000     0.0479885  
H85      H      0.197940000000     0.632460000000     0.011310000000     0.0478925  
H86      H      0.198140000000     0.578790000000     0.010770000000     0.0338667  
H87      H      0.108760000000     0.578790000000     0.963170000000     0.0338889  
H88      H      0.108800000000     0.632450000000     0.963300000000     0.0479308  
H89      H      0.170060000000     0.299240000000     0.918990000000     0.0479876  
H90      H      0.170000000000     0.245560000000     0.919020000000     0.0342068  
H91      H      0.137710000000     0.245770000000     0.052660000000     0.0338544  
H92      H      0.137480000000     0.299410000000     0.052260000000     0.0478819  
H93      H      0.109130000000     0.339870000000     0.009580000000     0.0480557  
H94      H      0.108970000000     0.393520000000     0.009610000000     0.0339828  
H95      H      0.198340000000     0.393680000000     0.961970000000     0.0338358  
H96      H      0.198260000000     0.340010000000     0.961530000000     0.0478797  
H97      H      0.198540000000     0.501390000000     0.705100000000     0.0469365  
H98      H      0.198700000000     0.500630000000     0.625090000000     0.0339412  
H99      H      0.108470000000     0.471520000000     0.625150000000     0.033932   
H100     H      0.108630000000     0.470950000000     0.705180000000     0.0469877  
H101     H      0.108590000000     0.501370000000     0.767530000000     0.0469702  
H102     H      0.108440000000     0.500790000000     0.847560000000     0.0339354  
H103     H      0.198730000000     0.471900000000     0.847620000000     0.0339383  
H104     H      0.198580000000     0.471150000000     0.767610000000     0.0469398  
H105     H      0.198540000000     0.501370000000     0.205100000000     0.0469545  
H106     H      0.198700000000     0.500600000000     0.125090000000     0.0339801  
H107     H      0.108480000000     0.471490000000     0.125150000000     0.0339709  
H108     H      0.108630000000     0.470920000000     0.205180000000     0.0469437  
H109     H      0.108590000000     0.501350000000     0.267530000000     0.0469537  
H110     H      0.108440000000     0.500790000000     0.347550000000     0.0339367  
H111     H      0.198730000000     0.471900000000     0.347620000000     0.033944   
H112     H      0.198580000000     0.471130000000     0.267610000000     0.0469669  
H113     H      0.300080000000     0.169160000000     0.553700000000     0.047994   
H114     H      0.246400000000     0.169070000000     0.553660000000     0.0342057  
H115     H      0.246640000000     0.136800000000     0.420010000000     0.0338682  
H116     H      0.300290000000     0.136610000000     0.420420000000     0.0478623  
H117     H      0.340790000000     0.108310000000     0.463080000000     0.0479318  
H118     H      0.394450000000     0.108250000000     0.463050000000     0.0339106  
H119     H      0.394460000000     0.197620000000     0.510710000000     0.0338418  
H120     H      0.340790000000     0.197440000000     0.511170000000     0.0478898  
H121     H      0.673880000000     0.136840000000     0.551980000000     0.0478712  
H122     H      0.727530000000     0.137060000000     0.552280000000     0.0338585  
H123     H      0.727650000000     0.169380000000     0.418660000000     0.0342006  
H124     H      0.673960000000     0.169440000000     0.418720000000     0.0480154  
H125     H      0.633240000000     0.197650000000     0.461340000000     0.0478617  
H126     H      0.579570000000     0.197760000000     0.461880000000     0.033868   
H127     H      0.579730000000     0.108380000000     0.509490000000     0.0339274  
H128     H      0.633390000000     0.108510000000     0.509360000000     0.0479118  
H129     H      0.340820000000     0.197450000000     0.011300000000     0.0478867  
H130     H      0.394490000000     0.197630000000     0.010740000000     0.033876   
H131     H      0.394440000000     0.108250000000     0.963140000000     0.0339044  
H132     H      0.340780000000     0.108310000000     0.963280000000     0.0479271  
H133     H      0.300240000000     0.136580000000     0.920670000000     0.0478878  
H134     H      0.246600000000     0.136770000000     0.920350000000     0.0338476  
H135     H      0.246450000000     0.169100000000     0.053970000000     0.0341866  
H136     H      0.300130000000     0.169190000000     0.053920000000     0.0480206  
H137     H      0.633370000000     0.108510000000     0.009530000000     0.0480326  
H138     H      0.579720000000     0.108380000000     0.009570000000     0.0339797  
H139     H      0.579590000000     0.197740000000     0.961900000000     0.0338472  
H140     H      0.633260000000     0.197640000000     0.961440000000     0.0478747  
H141     H      0.674010000000     0.169400000000     0.918910000000     0.0479693  
H142     H      0.727700000000     0.169340000000     0.918940000000     0.0342224  
H143     H      0.727480000000     0.137080000000     0.052590000000     0.0338849  
H144     H      0.673840000000     0.136860000000     0.052200000000     0.0478564  
H145     H      0.471880000000     0.108040000000     0.767480000000     0.0469678  
H146     H      0.472440000000     0.107890000000     0.847510000000     0.0339299  
H147     H      0.501380000000     0.198170000000     0.847580000000     0.0339365  
H148     H      0.502140000000     0.198010000000     0.767570000000     0.0469621  
H149     H      0.471900000000     0.197990000000     0.705050000000     0.046937   
H150     H      0.472670000000     0.198150000000     0.625040000000     0.033961   
H151     H      0.501730000000     0.107910000000     0.625110000000     0.0339568  
H152     H      0.502300000000     0.108060000000     0.705130000000     0.0469273  
H153     H      0.471880000000     0.108050000000     0.267480000000     0.0469584  
H154     H      0.472440000000     0.107890000000     0.347510000000     0.0339541  
H155     H      0.501380000000     0.198170000000     0.347580000000     0.0339636  
H156     H      0.502150000000     0.198020000000     0.267570000000     0.0469448  
H157     H      0.471910000000     0.198000000000     0.205050000000     0.0469445  
H158     H      0.472680000000     0.198150000000     0.125040000000     0.03397    
H159     H      0.501750000000     0.107920000000     0.125110000000     0.0339538  
H160     H      0.502310000000     0.108070000000     0.205140000000     0.046962   
H161     H      0.864880000000     0.340170000000     0.462880000000     0.0479127  
H162     H      0.864910000000     0.393830000000     0.462790000000     0.033912   
H163     H      0.775540000000     0.393810000000     0.510450000000     0.0338715  
H164     H      0.775740000000     0.340140000000     0.510950000000     0.0478392  
H165     H      0.804040000000     0.299460000000     0.553530000000     0.0480037  
H166     H      0.804160000000     0.245780000000     0.553530000000     0.0341959  
H167     H      0.836440000000     0.245990000000     0.419890000000     0.033849   
H168     H      0.836600000000     0.299630000000     0.420250000000     0.0479162  
H169     H      0.836210000000     0.673220000000     0.551810000000     0.0478875  
H170     H      0.835980000000     0.726870000000     0.552180000000     0.0338778  
H171     H      0.803640000000     0.727040000000     0.418560000000     0.0342221  
H172     H      0.803590000000     0.673350000000     0.418570000000     0.0479949  
H173     H      0.775400000000     0.632600000000     0.461150000000     0.0478497  
H174     H      0.775320000000     0.578930000000     0.461640000000     0.0338603  
H175     H      0.864700000000     0.579100000000     0.509230000000     0.0339096  
H176     H      0.864550000000     0.632760000000     0.509150000000     0.0479421  
H177     H      0.775720000000     0.340170000000     0.011040000000     0.0478783  
H178     H      0.775520000000     0.393840000000     0.010450000000     0.0338598  
H179     H      0.864900000000     0.393830000000     0.962860000000     0.0338934  
H180     H      0.864870000000     0.340170000000     0.963030000000     0.0479409  
H181     H      0.836620000000     0.299590000000     0.920460000000     0.0478808  
H182     H      0.836460000000     0.245950000000     0.920200000000     0.0338622  
H183     H      0.804120000000     0.245840000000     0.053810000000     0.0342148  
H184     H      0.804000000000     0.299530000000     0.053710000000     0.0479679  
H185     H      0.775430000000     0.632630000000     0.961300000000     0.0478727  
H186     H      0.775340000000     0.578960000000     0.961690000000     0.0338313  
H187     H      0.864710000000     0.579090000000     0.009340000000     0.0339886  
H188     H      0.864560000000     0.632750000000     0.009360000000     0.0480373  
H189     H      0.836200000000     0.673180000000     0.052090000000     0.0478664  
H190     H      0.835970000000     0.726820000000     0.052540000000     0.0338775  
H191     H      0.803690000000     0.727100000000     0.918890000000     0.0342355  
H192     H      0.803640000000     0.673410000000     0.918800000000     0.0479634  
H193     H      0.865080000000     0.471270000000     0.767200000000     0.0469807  
H194     H      0.865240000000     0.471840000000     0.847230000000     0.0339212  
H195     H      0.774940000000     0.500740000000     0.847300000000     0.0339489  
H196     H      0.775100000000     0.501500000000     0.767290000000     0.0469584  
H197     H      0.775130000000     0.471260000000     0.704770000000     0.0469387  
H198     H      0.774970000000     0.472020000000     0.624760000000     0.0339545  
H199     H      0.865200000000     0.501120000000     0.624820000000     0.0339362  
H200     H      0.865050000000     0.501690000000     0.704850000000     0.0469608  
H201     H      0.865080000000     0.471250000000     0.267200000000     0.0469764  
H202     H      0.865230000000     0.471820000000     0.347230000000     0.0339459  
H203     H      0.774940000000     0.500720000000     0.347300000000     0.0339508  
H204     H      0.775100000000     0.501480000000     0.267280000000     0.0469536  
H205     H      0.775130000000     0.471240000000     0.204770000000     0.0469313  
H206     H      0.774970000000     0.472010000000     0.124760000000     0.0339709  
H207     H      0.865200000000     0.501120000000     0.124830000000     0.0339403  
H208     H      0.865040000000     0.501680000000     0.204850000000     0.0469995  
H209     H      0.299700000000     0.803150000000     0.418740000000     0.0480006  
H210     H      0.246010000000     0.803230000000     0.418690000000     0.0342131  
H211     H      0.246140000000     0.835570000000     0.552290000000     0.0338603  
H212     H      0.299780000000     0.835780000000     0.551990000000     0.0479115  
H213     H      0.340280000000     0.864090000000     0.509360000000     0.0479362  
H214     H      0.393940000000     0.864220000000     0.509480000000     0.0339346  
H215     H      0.394090000000     0.774830000000     0.461890000000     0.0338493  
H216     H      0.340420000000     0.774940000000     0.461360000000     0.0478681  
H217     H      0.632870000000     0.775150000000     0.511080000000     0.0478641  
H218     H      0.579200000000     0.774980000000     0.510640000000     0.0338628  
H219     H      0.579200000000     0.864350000000     0.463020000000     0.0339194  
H220     H      0.632860000000     0.864290000000     0.463040000000     0.0479571  
H221     H      0.673370000000     0.836010000000     0.420360000000     0.0478992  
H222     H      0.727020000000     0.835830000000     0.419950000000     0.0338571  
H223     H      0.727270000000     0.803520000000     0.553570000000     0.0342232  
H224     H      0.673590000000     0.803420000000     0.553620000000     0.0480039  
H225     H      0.340420000000     0.774960000000     0.961520000000     0.0479072  
H226     H      0.394090000000     0.774850000000     0.961940000000     0.0338259  
H227     H      0.393970000000     0.864220000000     0.009570000000     0.0339941  
H228     H      0.340320000000     0.864090000000     0.009570000000     0.0480218  
H229     H      0.299850000000     0.835750000000     0.052260000000     0.047899   
H230     H      0.246210000000     0.835540000000     0.052670000000     0.0338396  
H231     H      0.245980000000     0.803250000000     0.919030000000     0.0341973  
H232     H      0.299660000000     0.803180000000     0.918980000000     0.0479772  
H233     H      0.632900000000     0.864290000000     0.963210000000     0.0479141  
H234     H      0.579240000000     0.864350000000     0.963090000000     0.0338871  
H235     H      0.579200000000     0.774960000000     0.010670000000     0.0338662  
H236     H      0.632870000000     0.775140000000     0.011200000000     0.0478826  
H237     H      0.673550000000     0.803390000000     0.053830000000     0.0479682  
H238     H      0.727230000000     0.803500000000     0.053880000000     0.0342073  
H239     H      0.727090000000     0.835860000000     0.920280000000     0.0338499  
H240     H      0.673440000000     0.836030000000     0.920590000000     0.0478788  
H241     H      0.501790000000     0.864550000000     0.767460000000     0.0469601  
H242     H      0.501230000000     0.864700000000     0.847480000000     0.0339449  
H243     H      0.472290000000     0.774420000000     0.847550000000     0.0339562  
H244     H      0.471520000000     0.774580000000     0.767540000000     0.0469309  
H245     H      0.501760000000     0.774600000000     0.705020000000     0.0469647  
H246     H      0.501000000000     0.774440000000     0.625010000000     0.0339505  
H247     H      0.471930000000     0.864680000000     0.625080000000     0.0339449  
H248     H      0.471360000000     0.864530000000     0.705110000000     0.0469564  
H249     H      0.501800000000     0.864550000000     0.267460000000     0.0469537  
H250     H      0.501220000000     0.864700000000     0.347490000000     0.0339693  
H251     H      0.472280000000     0.774430000000     0.347550000000     0.0339608  
H252     H      0.471520000000     0.774580000000     0.267540000000     0.0469414  
H253     H      0.501770000000     0.774600000000     0.205030000000     0.0469573  
H254     H      0.501020000000     0.774450000000     0.125020000000     0.0339791  
H255     H      0.471950000000     0.864690000000     0.125080000000     0.0339592  
H256     H      0.471380000000     0.864530000000     0.205100000000     0.0469876  
Ni1      Ni     0.486610000000     0.845770000000     0.986290000000     0.994709   
Ni2      Ni     0.486640000000     0.793370000000     0.986290000000     0.994398   
Ni3      Ni     0.486590000000     0.845770000000     0.486280000000     0.994607   
Ni4      Ni     0.486630000000     0.793370000000     0.486280000000     0.994666   
Ni5      Ni     0.846300000000     0.486450000000     0.986030000000     0.994646   
Ni6      Ni     0.793890000000     0.486400000000     0.986030000000     0.994716   
Ni7      Ni     0.846300000000     0.486450000000     0.486030000000     0.994905   
Ni8      Ni     0.793890000000     0.486390000000     0.486030000000     0.994461   
Ni9      Ni     0.487080000000     0.126820000000     0.986310000000     0.994648   
Ni10     Ni     0.487040000000     0.179230000000     0.986310000000     0.994712   
Ni11     Ni     0.487070000000     0.126820000000     0.486310000000     0.994734   
Ni12     Ni     0.487030000000     0.179230000000     0.486310000000     0.994799   
Ni13     Ni     0.127380000000     0.486170000000     0.986350000000     0.994767   
Ni14     Ni     0.179780000000     0.486230000000     0.986350000000     0.994409   
Ni15     Ni     0.127380000000     0.486180000000     0.486350000000     0.994696   
Ni16     Ni     0.179780000000     0.486250000000     0.486350000000     0.99454    
Ni17     Ni     0.819590000000     0.819760000000     0.947240000000     0.994536   
Ni18     Ni     0.819930000000     0.819360000000     0.025740000000     0.994436   
Ni19     Ni     0.819540000000     0.819730000000     0.446760000000     0.994515   
Ni20     Ni     0.819940000000     0.819370000000     0.525270000000     0.994558   
Ni21     Ni     0.820000000000     0.153140000000     0.025730000000     0.994526   
Ni22     Ni     0.820380000000     0.153460000000     0.947220000000     0.994627   
Ni23     Ni     0.820350000000     0.153470000000     0.446790000000     0.994304   
Ni24     Ni     0.820010000000     0.153100000000     0.525290000000     0.994854   
Ni25     Ni     0.153750000000     0.153260000000     0.025790000000     0.99482    
Ni26     Ni     0.154100000000     0.152880000000     0.947280000000     0.994375   
Ni27     Ni     0.153720000000     0.153250000000     0.525340000000     0.994901   
Ni28     Ni     0.154120000000     0.152920000000     0.446830000000     0.994679   
Ni29     Ni     0.153690000000     0.819500000000     0.025810000000     0.994544   
Ni30     Ni     0.153310000000     0.819150000000     0.947300000000     0.994657   
Ni31     Ni     0.153310000000     0.819150000000     0.446800000000     0.994434   
Ni32     Ni     0.153640000000     0.819540000000     0.525310000000     0.99498    
O1       O      0.486440000000     0.844040000000     0.049260000000    -0.438134   
O2       O      0.486780000000     0.844040000000     0.923310000000    -0.438078   
O3       O      0.444580000000     0.844010000000     0.986280000000    -0.438187   
O4       O      0.528640000000     0.844060000000     0.986290000000    -0.438272   
O5       O      0.528680000000     0.795130000000     0.986700000000    -0.438029   
O6       O      0.444610000000     0.795080000000     0.985870000000    -0.438095   
O7       O      0.486720000000     0.795110000000     0.923310000000    -0.438163   
O8       O      0.486560000000     0.795110000000     0.049260000000    -0.438216   
O9       O      0.486770000000     0.844040000000     0.423300000000    -0.438064   
O10      O      0.486410000000     0.844040000000     0.549260000000    -0.438067   
O11      O      0.528620000000     0.844070000000     0.486290000000    -0.438242   
O12      O      0.444560000000     0.844010000000     0.486270000000    -0.438136   
O13      O      0.444590000000     0.795080000000     0.485860000000    -0.438182   
O14      O      0.528660000000     0.795140000000     0.486700000000    -0.438154   
O15      O      0.486540000000     0.795110000000     0.549250000000    -0.438252   
O16      O      0.486710000000     0.795110000000     0.423310000000    -0.43825    
O17      O      0.844560000000     0.486630000000     0.049010000000    -0.438093   
O18      O      0.844560000000     0.486280000000     0.923050000000    -0.438102   
O19      O      0.844520000000     0.528480000000     0.986030000000    -0.438167   
O20      O      0.844600000000     0.444420000000     0.986040000000    -0.438321   
O21      O      0.795670000000     0.444370000000     0.986450000000    -0.438064   
O22      O      0.795590000000     0.528440000000     0.985610000000    -0.438156   
O23      O      0.795630000000     0.486320000000     0.923060000000    -0.438271   
O24      O      0.795630000000     0.486480000000     0.049000000000    -0.438273   
O25      O      0.844560000000     0.486270000000     0.423050000000    -0.438149   
O26      O      0.844560000000     0.486630000000     0.549000000000    -0.43824    
O27      O      0.844610000000     0.444420000000     0.486040000000    -0.438253   
O28      O      0.844510000000     0.528480000000     0.486010000000    -0.438267   
O29      O      0.795580000000     0.528430000000     0.485600000000    -0.438139   
O30      O      0.795680000000     0.444350000000     0.486460000000    -0.438102   
O31      O      0.795630000000     0.486480000000     0.549000000000    -0.438292   
O32      O      0.795630000000     0.486300000000     0.423050000000    -0.438209   
O33      O      0.487260000000     0.128560000000     0.049290000000    -0.438035   
O34      O      0.486890000000     0.128560000000     0.923330000000    -0.438095   
O35      O      0.529100000000     0.128590000000     0.986290000000    -0.438355   
O36      O      0.445040000000     0.128530000000     0.986330000000    -0.438222   
O37      O      0.445010000000     0.177460000000     0.986750000000    -0.438192   
O38      O      0.529080000000     0.177520000000     0.985880000000    -0.438119   
O39      O      0.486950000000     0.177490000000     0.923340000000    -0.438278   
O40      O      0.487130000000     0.177490000000     0.049280000000    -0.438198   
O41      O      0.486890000000     0.128560000000     0.423330000000    -0.438097   
O42      O      0.487250000000     0.128560000000     0.549290000000    -0.438171   
O43      O      0.445040000000     0.128530000000     0.486320000000    -0.438285   
O44      O      0.529100000000     0.128590000000     0.486290000000    -0.438267   
O45      O      0.529070000000     0.177520000000     0.485880000000    -0.438106   
O46      O      0.445000000000     0.177460000000     0.486740000000    -0.438177   
O47      O      0.487120000000     0.177490000000     0.549280000000    -0.438342   
O48      O      0.486950000000     0.177490000000     0.423340000000    -0.438274   
O49      O      0.129120000000     0.485990000000     0.049330000000    -0.43815    
O50      O      0.129120000000     0.486350000000     0.923380000000    -0.438367   
O51      O      0.129160000000     0.444140000000     0.986340000000    -0.438134   
O52      O      0.129070000000     0.528200000000     0.986370000000    -0.438344   
O53      O      0.178000000000     0.528260000000     0.986790000000    -0.438099   
O54      O      0.178090000000     0.444190000000     0.985930000000    -0.438017   
O55      O      0.178040000000     0.486310000000     0.923380000000    -0.438343   
O56      O      0.178050000000     0.486140000000     0.049330000000    -0.438005   
O57      O      0.129110000000     0.486010000000     0.549330000000    -0.438103   
O58      O      0.129120000000     0.486350000000     0.423370000000    -0.438322   
O59      O      0.129170000000     0.444150000000     0.486340000000    -0.438186   
O60      O      0.129060000000     0.528210000000     0.486360000000    -0.438231   
O61      O      0.177990000000     0.528280000000     0.486770000000    -0.438059   
O62      O      0.178100000000     0.444210000000     0.485930000000    -0.438052   
O63      O      0.178040000000     0.486320000000     0.423380000000    -0.438368   
O64      O      0.178040000000     0.486160000000     0.549330000000    -0.438206   
O65      O      0.777590000000     0.819910000000     0.950140000000    -0.438553   
O66      O      0.861690000000     0.819760000000     0.949590000000    -0.437205   
O67      O      0.819440000000     0.777690000000     0.949460000000    -0.437681   
O68      O      0.819580000000     0.861720000000     0.950170000000    -0.439242   
O69      O      0.819970000000     0.861460000000     0.023470000000    -0.437244   
O70      O      0.820050000000     0.777360000000     0.022770000000    -0.438384   
O71      O      0.861900000000     0.819300000000     0.022890000000    -0.439062   
O72      O      0.777860000000     0.819250000000     0.023440000000    -0.437507   
O73      O      0.777550000000     0.819890000000     0.449730000000    -0.438765   
O74      O      0.861650000000     0.819730000000     0.449050000000    -0.437141   
O75      O      0.819390000000     0.777660000000     0.449040000000    -0.437715   
O76      O      0.819540000000     0.861700000000     0.449640000000    -0.439072   
O77      O      0.819990000000     0.861470000000     0.522940000000    -0.437316   
O78      O      0.820050000000     0.777370000000     0.522340000000    -0.438646   
O79      O      0.861900000000     0.819310000000     0.522350000000    -0.439231   
O80      O      0.777860000000     0.819260000000     0.523030000000    -0.437657   
O81      O      0.778000000000     0.153010000000     0.022780000000    -0.4385     
O82      O      0.862100000000     0.153100000000     0.023430000000    -0.437182   
O83      O      0.819880000000     0.195210000000     0.023400000000    -0.437616   
O84      O      0.819950000000     0.111170000000     0.022900000000    -0.438997   
O85      O      0.820390000000     0.111360000000     0.949600000000    -0.437241   
O86      O      0.820530000000     0.195450000000     0.950100000000    -0.438778   
O87      O      0.862350000000     0.153470000000     0.950130000000    -0.439123   
O88      O      0.778310000000     0.153600000000     0.949470000000    -0.43763    
O89      O      0.820510000000     0.195470000000     0.449720000000    -0.438539   
O90      O      0.820350000000     0.111370000000     0.449100000000    -0.437138   
O91      O      0.778280000000     0.153620000000     0.449100000000    -0.437681   
O92      O      0.862320000000     0.153480000000     0.449630000000    -0.438974   
O93      O      0.862110000000     0.153060000000     0.522940000000    -0.437177   
O94      O      0.778020000000     0.152990000000     0.522400000000    -0.438783   
O95      O      0.819960000000     0.111140000000     0.522410000000    -0.439167   
O96      O      0.819910000000     0.195170000000     0.523020000000    -0.437766   
O97      O      0.153640000000     0.195250000000     0.022840000000    -0.438668   
O98      O      0.153700000000     0.111160000000     0.023490000000    -0.437187   
O99      O      0.195820000000     0.153360000000     0.023500000000    -0.437658   
O100     O      0.111780000000     0.153310000000     0.022920000000    -0.439111   
O101     O      0.112000000000     0.152880000000     0.949620000000    -0.437285   
O102     O      0.196100000000     0.152720000000     0.950200000000    -0.43856    
O103     O      0.154110000000     0.110910000000     0.950190000000    -0.439077   
O104     O      0.154260000000     0.194950000000     0.949540000000    -0.437712   
O105     O      0.153620000000     0.195240000000     0.522450000000    -0.438725   
O106     O      0.153660000000     0.111150000000     0.522970000000    -0.437236   
O107     O      0.195790000000     0.153340000000     0.523100000000    -0.43779    
O108     O      0.111760000000     0.153310000000     0.522410000000    -0.439207   
O109     O      0.112020000000     0.152930000000     0.449110000000    -0.43728    
O110     O      0.196110000000     0.152750000000     0.449800000000    -0.438672   
O111     O      0.154120000000     0.110950000000     0.449670000000    -0.439087   
O112     O      0.154280000000     0.194990000000     0.449150000000    -0.437686   
O113     O      0.195680000000     0.819620000000     0.022860000000    -0.438634   
O114     O      0.111580000000     0.819550000000     0.023500000000    -0.437121   
O115     O      0.153790000000     0.777430000000     0.023510000000    -0.437718   
O116     O      0.153740000000     0.861470000000     0.022940000000    -0.438981   
O117     O      0.153310000000     0.861250000000     0.949640000000    -0.437217   
O118     O      0.153150000000     0.777160000000     0.950210000000    -0.438737   
O119     O      0.111340000000     0.819140000000     0.950200000000    -0.439128   
O120     O      0.195380000000     0.819000000000     0.949560000000    -0.43774    
O121     O      0.153150000000     0.777150000000     0.449770000000    -0.438543   
O122     O      0.153320000000     0.861250000000     0.449090000000    -0.437301   
O123     O      0.195380000000     0.818990000000     0.449120000000    -0.437678   
O124     O      0.111340000000     0.819140000000     0.449640000000    -0.439077   
O125     O      0.111550000000     0.819590000000     0.522940000000    -0.437468   
O126     O      0.195640000000     0.819650000000     0.522420000000    -0.438659   
O127     O      0.153710000000     0.861500000000     0.522390000000    -0.439221   
O128     O      0.153750000000     0.777470000000     0.523070000000    -0.437808   


