data_structure

_audit_creation_method RASPA-1.0
_audit_creation_date 2023-5-22
_audit_author_name 'Poobodin Mano'

_cell_length_a    30.4102
_cell_length_b    30.4102
_cell_length_c    60.766
_cell_angle_alpha 90
_cell_angle_beta  90
_cell_angle_gamma 90
_cell_volume      56195.2

_symmetry_cell_setting          triclinic
_symmetry_space_group_name_Hall 'P 1'
_symmetry_space_group_name_H-M  'P 1'
_symmetry_Int_Tables_number     1

_symmetry_equiv_pos_as_xyz 'x,y,z'

loop_
_atom_site_label
_atom_site_type_symbol
_atom_site_fract_x
_atom_site_fract_y
_atom_site_fract_z
_atom_site_charge
C1       C      0.986500000000     0.986450000000     0.153710000000     0.386594   
C2       C      0.986430000000     0.986490000000     0.069870000000     0.386477   
C3       C      0.986240000000     0.902700000000     0.111800000000     0.386512   
C4       C      0.986680000000     0.070250000000     0.111810000000     0.386492   
C5       C      0.986490000000     0.486410000000     0.153800000000     0.386458   
C6       C      0.986420000000     0.486530000000     0.069950000000     0.386406   
C7       C      0.986220000000     0.402700000000     0.111860000000     0.386507   
C8       C      0.986690000000     0.570250000000     0.111910000000     0.386501   
C9       C      0.486280000000     0.069840000000     0.111750000000     0.386731   
C10      C      0.485850000000     0.902290000000     0.111760000000     0.386478   
C11      C      0.486150000000     0.986060000000     0.153660000000     0.386606   
C12      C      0.485980000000     0.986060000000     0.069810000000     0.386595   
C13      C      0.485820000000     0.402280000000     0.111840000000     0.386578   
C14      C      0.486290000000     0.569840000000     0.111870000000     0.386475   
C15      C      0.485970000000     0.486100000000     0.069910000000     0.386586   
C16      C      0.486150000000     0.486020000000     0.153760000000     0.386704   
C17      C      0.986490000000     0.902880000000     0.861530000000     0.386541   
C18      C      0.986020000000     0.070430000000     0.861550000000     0.386419   
C19      C      0.986290000000     0.986640000000     0.903480000000     0.3866     
C20      C      0.986230000000     0.986670000000     0.819630000000     0.386395   
C21      C      0.986050000000     0.570430000000     0.861600000000     0.386549   
C22      C      0.986480000000     0.402880000000     0.861640000000     0.386537   
C23      C      0.986270000000     0.486700000000     0.903570000000     0.386419   
C24      C      0.986260000000     0.486600000000     0.819710000000     0.386474   
C25      C      0.485910000000     0.986450000000     0.819580000000     0.386592   
C26      C      0.485860000000     0.986370000000     0.903430000000     0.386301   
C27      C      0.485650000000     0.070190000000     0.861510000000     0.386542   
C28      C      0.486120000000     0.902630000000     0.861470000000     0.386351   
C29      C      0.485940000000     0.486380000000     0.819680000000     0.386605   
C30      C      0.485840000000     0.486440000000     0.903530000000     0.386472   
C31      C      0.486100000000     0.402630000000     0.861600000000     0.386335   
C32      C      0.485670000000     0.570190000000     0.861570000000     0.386613   
C33      C      0.902770000000     0.986060000000     0.361520000000     0.386472   
C34      C      0.070320000000     0.986500000000     0.361550000000     0.386518   
C35      C      0.986510000000     0.986280000000     0.403480000000     0.386365   
C36      C      0.986580000000     0.986300000000     0.319630000000     0.386458   
C37      C      0.986550000000     0.485950000000     0.319710000000     0.386516   
C38      C      0.986490000000     0.485790000000     0.403570000000     0.386373   
C39      C      0.070300000000     0.486080000000     0.361640000000     0.386485   
C40      C      0.902740000000     0.485640000000     0.361610000000     0.386623   
C41      C      0.486560000000     0.986310000000     0.403430000000     0.386411   
C42      C      0.486520000000     0.986220000000     0.319580000000     0.386647   
C43      C      0.570320000000     0.986500000000     0.361480000000     0.386499   
C44      C      0.402770000000     0.986040000000     0.361490000000     0.386293   
C45      C      0.570300000000     0.486070000000     0.361580000000     0.386553   
C46      C      0.402740000000     0.485620000000     0.361600000000     0.386531   
C47      C      0.486490000000     0.485870000000     0.319680000000     0.386603   
C48      C      0.486540000000     0.485820000000     0.403530000000     0.386457   
C49      C      0.069960000000     0.986210000000     0.611810000000     0.386336   
C50      C      0.902410000000     0.986680000000     0.611800000000     0.386445   
C51      C      0.986180000000     0.986500000000     0.653710000000     0.386609   
C52      C      0.986210000000     0.986390000000     0.569860000000     0.386271   
C53      C      0.070140000000     0.485720000000     0.611890000000     0.386574   
C54      C      0.902580000000     0.486180000000     0.611890000000     0.386444   
C55      C      0.986350000000     0.486060000000     0.653800000000     0.386542   
C56      C      0.986380000000     0.485850000000     0.569950000000     0.386494   
C57      C      0.402410000000     0.986660000000     0.611730000000     0.386495   
C58      C      0.569960000000     0.986220000000     0.611770000000     0.386312   
C59      C      0.486130000000     0.986460000000     0.653660000000     0.386468   
C60      C      0.486240000000     0.986420000000     0.569810000000     0.386323   
C61      C      0.486300000000     0.486020000000     0.653760000000     0.386684   
C62      C      0.486420000000     0.485880000000     0.569910000000     0.386571   
C63      C      0.402590000000     0.486170000000     0.611830000000     0.38663    
C64      C      0.570140000000     0.485720000000     0.611880000000     0.386618   
C65      C      0.784570000000     0.448250000000     0.618100000000    -0.0682118  
C66      C      0.760870000000     0.486010000000     0.611890000000     0.0238772  
C67      C      0.784440000000     0.523900000000     0.605710000000    -0.0680947  
C68      C      0.830400000000     0.524080000000     0.605870000000     0.0286492  
C69      C      0.853930000000     0.486210000000     0.611920000000    -0.114821   
C70      C      0.830510000000     0.448260000000     0.617970000000     0.0285806  
C71      C      0.711860000000     0.485890000000     0.611890000000     0.0239134  
C72      C      0.688290000000     0.447980000000     0.605750000000    -0.0681302  
C73      C      0.642320000000     0.447800000000     0.605910000000     0.0286656  
C74      C      0.618800000000     0.485690000000     0.611920000000    -0.114831   
C75      C      0.642210000000     0.523660000000     0.617930000000     0.0286081  
C76      C      0.688160000000     0.523680000000     0.618060000000    -0.0682504  
C77      C      0.188170000000     0.523670000000     0.618040000000    -0.0682407  
C78      C      0.211850000000     0.485880000000     0.611870000000     0.0239232  
C79      C      0.188280000000     0.447970000000     0.605730000000    -0.0681169  
C80      C      0.142310000000     0.447790000000     0.605910000000     0.0286478  
C81      C      0.118800000000     0.485690000000     0.611920000000    -0.114771   
C82      C      0.142220000000     0.523660000000     0.617930000000     0.0285763  
C83      C      0.260870000000     0.486000000000     0.611850000000     0.0239038  
C84      C      0.284440000000     0.523880000000     0.605670000000    -0.0681146  
C85      C      0.330400000000     0.524060000000     0.605820000000     0.0286747  
C86      C      0.353930000000     0.486200000000     0.611870000000    -0.114814   
C87      C      0.330510000000     0.448250000000     0.617920000000     0.0286022  
C88      C      0.284570000000     0.448230000000     0.618060000000    -0.0682648  
C89      C      0.784390000000     0.948740000000     0.618000000000    -0.0682764  
C90      C      0.760690000000     0.986510000000     0.611800000000     0.023808   
C91      C      0.784270000000     0.024400000000     0.605630000000    -0.0679817  
C92      C      0.830230000000     0.024580000000     0.605790000000     0.0287531  
C93      C      0.853750000000     0.986710000000     0.611830000000    -0.114896   
C94      C      0.830330000000     0.948760000000     0.617870000000     0.0286256  
C95      C      0.711680000000     0.986390000000     0.611790000000     0.0237887  
C96      C      0.688110000000     0.948490000000     0.605640000000    -0.0680663  
C97      C      0.642150000000     0.948310000000     0.605800000000     0.0286191  
C98      C      0.618620000000     0.986190000000     0.611820000000    -0.114786   
C99      C      0.642030000000     0.024160000000     0.617840000000     0.0286053  
C100     C      0.687980000000     0.024170000000     0.617970000000    -0.0681027  
C101     C      0.188000000000     0.024160000000     0.617960000000    -0.0681298  
C102     C      0.211680000000     0.986370000000     0.611770000000     0.0237948  
C103     C      0.188100000000     0.948470000000     0.605630000000    -0.0680391  
C104     C      0.142140000000     0.948290000000     0.605800000000     0.0285776  
C105     C      0.118620000000     0.986180000000     0.611830000000    -0.114765   
C106     C      0.142050000000     0.024140000000     0.617850000000     0.0286312  
C107     C      0.260690000000     0.986490000000     0.611760000000     0.0238094  
C108     C      0.284260000000     0.024380000000     0.605580000000    -0.0679888  
C109     C      0.330220000000     0.024560000000     0.605730000000     0.0287261  
C110     C      0.353750000000     0.986680000000     0.611760000000    -0.114856   
C111     C      0.330340000000     0.948730000000     0.617810000000     0.028562   
C112     C      0.284390000000     0.948720000000     0.617940000000    -0.0682064  
C113     C      0.474160000000     0.447980000000     0.510820000000    -0.0681099  
C114     C      0.486500000000     0.485810000000     0.498990000000     0.0239395  
C115     C      0.498840000000     0.523650000000     0.510810000000    -0.0681357  
C116     C      0.498530000000     0.523750000000     0.533810000000     0.0286379  
C117     C      0.486450000000     0.485850000000     0.545560000000    -0.114835   
C118     C      0.474420000000     0.447920000000     0.533820000000     0.0286221  
C119     C      0.486510000000     0.485800000000     0.474460000000     0.0238852  
C120     C      0.498860000000     0.447970000000     0.462630000000    -0.0680935  
C121     C      0.498580000000     0.447890000000     0.439630000000     0.0285673  
C122     C      0.486530000000     0.485810000000     0.427880000000    -0.114743   
C123     C      0.474460000000     0.523720000000     0.439630000000     0.0285789  
C124     C      0.474170000000     0.523640000000     0.462630000000    -0.0680852  
C125     C      0.498710000000     0.024220000000     0.510710000000    -0.0680082  
C126     C      0.486400000000     0.986380000000     0.498880000000     0.0238016  
C127     C      0.474030000000     0.948550000000     0.510710000000    -0.0680606  
C128     C      0.474260000000     0.948480000000     0.533710000000     0.0285312  
C129     C      0.486290000000     0.986410000000     0.545460000000    -0.114783   
C130     C      0.498370000000     0.024320000000     0.533710000000     0.0286461  
C131     C      0.486450000000     0.986370000000     0.474350000000     0.0238516  
C132     C      0.474130000000     0.024190000000     0.462510000000    -0.0680323  
C133     C      0.474460000000     0.024260000000     0.439520000000     0.0286859  
C134     C      0.486540000000     0.986330000000     0.427780000000    -0.114874   
C135     C      0.498580000000     0.948420000000     0.439540000000     0.0286031  
C136     C      0.498830000000     0.948520000000     0.462540000000    -0.0681304  
C137     C      0.998780000000     0.523590000000     0.510840000000    -0.0682127  
C138     C      0.986440000000     0.485750000000     0.499020000000     0.0239072  
C139     C      0.974090000000     0.447920000000     0.510860000000    -0.0681181  
C140     C      0.974360000000     0.447870000000     0.533860000000     0.0285835  
C141     C      0.986410000000     0.485800000000     0.545600000000    -0.11473    
C142     C      0.998490000000     0.523700000000     0.533840000000     0.0284798  
C143     C      0.986430000000     0.485740000000     0.474490000000     0.0239527  
C144     C      0.974080000000     0.523570000000     0.462670000000    -0.0681718  
C145     C      0.974380000000     0.523670000000     0.439670000000     0.0285802  
C146     C      0.986450000000     0.485760000000     0.427920000000    -0.114719   
C147     C      0.998500000000     0.447830000000     0.439660000000     0.0284726  
C148     C      0.998770000000     0.447900000000     0.462660000000    -0.0682127  
C149     C      0.784720000000     0.523590000000     0.355410000000    -0.0683674  
C150     C      0.761030000000     0.485800000000     0.361590000000     0.023967   
C151     C      0.784600000000     0.447900000000     0.367740000000    -0.0681772  
C152     C      0.830560000000     0.447720000000     0.367580000000     0.0287492  
C153     C      0.854090000000     0.485610000000     0.361570000000    -0.114948   
C154     C      0.830670000000     0.523570000000     0.355550000000     0.0287078  
C155     C      0.712010000000     0.485920000000     0.361580000000     0.0238795  
C156     C      0.688440000000     0.523810000000     0.367750000000    -0.0680933  
C157     C      0.642470000000     0.523990000000     0.367590000000     0.0286219  
C158     C      0.618960000000     0.486110000000     0.361550000000    -0.114769   
C159     C      0.642380000000     0.448160000000     0.355500000000     0.0285685  
C160     C      0.688320000000     0.448150000000     0.355380000000    -0.0682286  
C161     C      0.284600000000     0.447880000000     0.367770000000    -0.0681011  
C162     C      0.261030000000     0.485780000000     0.361620000000     0.0239026  
C163     C      0.284720000000     0.523570000000     0.355440000000    -0.0682499  
C164     C      0.330670000000     0.523550000000     0.355560000000     0.028608   
C165     C      0.354080000000     0.485590000000     0.361580000000    -0.114813   
C166     C      0.330570000000     0.447700000000     0.367600000000     0.0286528  
C167     C      0.212010000000     0.485910000000     0.361630000000     0.0239174  
C168     C      0.188320000000     0.448140000000     0.355430000000    -0.0682607  
C169     C      0.142370000000     0.448160000000     0.355560000000     0.0285862  
C170     C      0.118960000000     0.486110000000     0.361610000000    -0.11477    
C171     C      0.142480000000     0.523980000000     0.367650000000     0.0286498  
C172     C      0.188450000000     0.523800000000     0.367810000000    -0.068103   
C173     C      0.998660000000     0.024160000000     0.510760000000    -0.0680867  
C174     C      0.986330000000     0.986320000000     0.498940000000     0.023837   
C175     C      0.973970000000     0.948490000000     0.510770000000    -0.0681014  
C176     C      0.974210000000     0.948440000000     0.533770000000     0.0285708  
C177     C      0.986240000000     0.986370000000     0.545510000000    -0.114801   
C178     C      0.998330000000     0.024270000000     0.533760000000     0.0285606  
C179     C      0.986370000000     0.986300000000     0.474410000000     0.0237983  
C180     C      0.974050000000     0.024130000000     0.462570000000    -0.0679824  
C181     C      0.974380000000     0.024200000000     0.439570000000     0.0286255  
C182     C      0.986460000000     0.986280000000     0.427830000000    -0.11479    
C183     C      0.998500000000     0.948370000000     0.439590000000     0.0284702  
C184     C      0.998730000000     0.948460000000     0.462590000000    -0.0681539  
C185     C      0.784620000000     0.948330000000     0.367660000000    -0.0680694  
C186     C      0.761050000000     0.986220000000     0.361490000000     0.0237997  
C187     C      0.784750000000     0.024000000000     0.355300000000    -0.0681314  
C188     C      0.830700000000     0.023990000000     0.355440000000     0.0286452  
C189     C      0.854110000000     0.986030000000     0.361480000000    -0.114857   
C190     C      0.830590000000     0.948150000000     0.367510000000     0.0286252  
C191     C      0.712040000000     0.986340000000     0.361480000000     0.0237854  
C192     C      0.688350000000     0.948560000000     0.355300000000    -0.068206   
C193     C      0.642400000000     0.948570000000     0.355420000000     0.0285613  
C194     C      0.618980000000     0.986530000000     0.361440000000    -0.114851   
C195     C      0.642500000000     0.024420000000     0.367470000000     0.028682   
C196     C      0.688460000000     0.024240000000     0.367630000000    -0.0679332  
C197     C      0.284740000000     0.023980000000     0.355320000000    -0.0681759  
C198     C      0.261050000000     0.986200000000     0.361520000000     0.0238138  
C199     C      0.284630000000     0.948310000000     0.367680000000    -0.0680925  
C200     C      0.330590000000     0.948130000000     0.367510000000     0.0286607  
C201     C      0.354110000000     0.986000000000     0.361470000000    -0.114825   
C202     C      0.330690000000     0.023960000000     0.355440000000     0.0286517  
C203     C      0.212040000000     0.986330000000     0.361530000000     0.0238136  
C204     C      0.188480000000     0.024230000000     0.367690000000    -0.0679913  
C205     C      0.142510000000     0.024410000000     0.367540000000     0.0287295  
C206     C      0.118980000000     0.986530000000     0.361520000000    -0.114873   
C207     C      0.142390000000     0.948570000000     0.355490000000     0.028603   
C208     C      0.188340000000     0.948550000000     0.355350000000    -0.0682362  
C209     C      0.448630000000     0.472640000000     0.760590000000    -0.0688048  
C210     C      0.486070000000     0.486230000000     0.748900000000     0.0240319  
C211     C      0.523470000000     0.499890000000     0.760610000000    -0.0687577  
C212     C      0.523560000000     0.499580000000     0.783620000000     0.0288793  
C213     C      0.485970000000     0.486340000000     0.795340000000    -0.114933   
C214     C      0.448440000000     0.473050000000     0.783590000000     0.0289431  
C215     C      0.486130000000     0.486180000000     0.724540000000     0.0240501  
C216     C      0.472540000000     0.448730000000     0.712860000000    -0.0687613  
C217     C      0.472960000000     0.448530000000     0.689850000000     0.0288625  
C218     C      0.486250000000     0.486070000000     0.678100000000    -0.114918   
C219     C      0.499490000000     0.523660000000     0.689830000000     0.0289075  
C220     C      0.499790000000     0.523570000000     0.712830000000    -0.0687971  
C221     C      0.523380000000     0.000120000000     0.760510000000    -0.0684364  
C222     C      0.485970000000     0.986490000000     0.748800000000     0.0238279  
C223     C      0.448540000000     0.972860000000     0.760490000000    -0.0686737  
C224     C      0.448370000000     0.973210000000     0.783490000000     0.0288044  
C225     C      0.485920000000     0.986470000000     0.795240000000    -0.114782   
C226     C      0.523500000000     0.999750000000     0.783510000000     0.0285214  
C227     C      0.486000000000     0.986480000000     0.724440000000     0.0239945  
C228     C      0.499650000000     0.023900000000     0.712740000000    -0.0687451  
C229     C      0.499330000000     0.024030000000     0.689740000000     0.0290616  
C230     C      0.486090000000     0.986470000000     0.678000000000    -0.115025   
C231     C      0.472800000000     0.948910000000     0.689730000000     0.0288888  
C232     C      0.472400000000     0.949060000000     0.712740000000    -0.0687612  
C233     C      0.523850000000     0.784500000000     0.867650000000    -0.0680971  
C234     C      0.485960000000     0.760920000000     0.861490000000     0.0239341  
C235     C      0.448190000000     0.784600000000     0.855290000000    -0.0683003  
C236     C      0.448200000000     0.830550000000     0.855410000000     0.0285978  
C237     C      0.486160000000     0.853980000000     0.861440000000    -0.114806   
C238     C      0.524030000000     0.830460000000     0.867480000000     0.0286779  
C239     C      0.485840000000     0.711910000000     0.861510000000     0.0238681  
C240     C      0.523630000000     0.688200000000     0.855340000000    -0.0682538  
C241     C      0.523610000000     0.642250000000     0.855490000000     0.0285942  
C242     C      0.485640000000     0.618840000000     0.861520000000    -0.114869   
C243     C      0.447760000000     0.642380000000     0.867530000000     0.0286855  
C244     C      0.447940000000     0.688340000000     0.867670000000    -0.0680681  
C245     C      0.523590000000     0.188220000000     0.855360000000    -0.0682918  
C246     C      0.485800000000     0.211900000000     0.861550000000     0.0239226  
C247     C      0.447900000000     0.188320000000     0.867700000000    -0.0681161  
C248     C      0.447720000000     0.142360000000     0.867520000000     0.0286576  
C249     C      0.485610000000     0.118850000000     0.861490000000    -0.11478    
C250     C      0.523570000000     0.142280000000     0.855470000000     0.0286164  
C251     C      0.485920000000     0.260920000000     0.861570000000     0.023898   
C252     C      0.523820000000     0.284480000000     0.867750000000    -0.0681072  
C253     C      0.524000000000     0.330450000000     0.867600000000     0.0286378  
C254     C      0.486130000000     0.353980000000     0.861560000000    -0.114771   
C255     C      0.448170000000     0.330570000000     0.855520000000     0.0285709  
C256     C      0.448150000000     0.284620000000     0.855380000000    -0.0682489  
C257     C      0.948860000000     0.472790000000     0.760640000000    -0.0688483  
C258     C      0.986290000000     0.486370000000     0.748940000000     0.0239707  
C259     C      0.023700000000     0.500040000000     0.760630000000    -0.0687341  
C260     C      0.023830000000     0.499760000000     0.783630000000     0.0290695  
C261     C      0.986260000000     0.486540000000     0.795380000000    -0.115155   
C262     C      0.948700000000     0.473230000000     0.783640000000     0.0289609  
C263     C      0.986300000000     0.486290000000     0.724580000000     0.0240758  
C264     C      0.972680000000     0.448830000000     0.712910000000    -0.0688249  
C265     C      0.973060000000     0.448610000000     0.689910000000     0.0289098  
C266     C      0.986340000000     0.486130000000     0.678140000000    -0.11491    
C267     C      0.999600000000     0.523730000000     0.689850000000     0.0288399  
C268     C      0.999940000000     0.523670000000     0.712850000000    -0.0689226  
C269     C      0.023610000000     0.000270000000     0.760540000000    -0.0683397  
C270     C      0.986180000000     0.986630000000     0.748850000000     0.0236944  
C271     C      0.948770000000     0.973010000000     0.760560000000    -0.0686463  
C272     C      0.948640000000     0.973390000000     0.783560000000     0.0288047  
C273     C      0.986210000000     0.986660000000     0.795290000000    -0.114872   
C274     C      0.023760000000     0.999920000000     0.783550000000     0.0286325  
C275     C      0.986170000000     0.986600000000     0.724490000000     0.0240529  
C276     C      0.999800000000     0.024000000000     0.712780000000    -0.0688465  
C277     C      0.999440000000     0.024110000000     0.689780000000     0.0289391  
C278     C      0.986170000000     0.986530000000     0.678050000000    -0.11505    
C279     C      0.972910000000     0.948990000000     0.689800000000     0.0289797  
C280     C      0.972550000000     0.949160000000     0.712800000000    -0.0688394  
C281     C      0.948550000000     0.784850000000     0.855360000000    -0.0682222  
C282     C      0.986340000000     0.761160000000     0.861550000000     0.0237989  
C283     C      0.024240000000     0.784740000000     0.867700000000    -0.068032   
C284     C      0.024410000000     0.830700000000     0.867530000000     0.0287681  
C285     C      0.986530000000     0.854220000000     0.861500000000    -0.114901   
C286     C      0.948570000000     0.830800000000     0.855480000000     0.0285943  
C287     C      0.986210000000     0.712150000000     0.861560000000     0.0238301  
C288     C      0.948320000000     0.688580000000     0.867730000000    -0.0681043  
C289     C      0.948140000000     0.642620000000     0.867580000000     0.0286637  
C290     C      0.986020000000     0.619090000000     0.861550000000    -0.114915   
C291     C      0.023970000000     0.642500000000     0.855510000000     0.0287278  
C292     C      0.023990000000     0.688450000000     0.855370000000    -0.0681976  
C293     C      0.024200000000     0.284720000000     0.867780000000    -0.0679688  
C294     C      0.986300000000     0.261160000000     0.861620000000     0.0238098  
C295     C      0.948520000000     0.284860000000     0.855440000000    -0.0682418  
C296     C      0.948540000000     0.330810000000     0.855580000000     0.0285928  
C297     C      0.986500000000     0.354220000000     0.861610000000    -0.114866   
C298     C      0.024390000000     0.330690000000     0.867630000000     0.0286956  
C299     C      0.986180000000     0.212150000000     0.861600000000     0.0238144  
C300     C      0.023960000000     0.188460000000     0.855400000000    -0.068175   
C301     C      0.023940000000     0.142520000000     0.855510000000     0.0287355  
C302     C      0.985990000000     0.119090000000     0.861530000000    -0.114856   
C303     C      0.948110000000     0.142600000000     0.867580000000     0.0286098  
C304     C      0.948290000000     0.188570000000     0.867750000000    -0.0680576  
C305     C      0.448860000000     0.499590000000     0.212870000000    -0.0687721  
C306     C      0.486310000000     0.485950000000     0.224540000000     0.0240527  
C307     C      0.523700000000     0.472330000000     0.212820000000    -0.0687971  
C308     C      0.523790000000     0.472710000000     0.189810000000     0.028889   
C309     C      0.486200000000     0.485990000000     0.178100000000    -0.114928   
C310     C      0.448670000000     0.499250000000     0.189860000000     0.0288942  
C311     C      0.486360000000     0.485930000000     0.248900000000     0.0240108  
C312     C      0.472760000000     0.523340000000     0.260620000000    -0.0687685  
C313     C      0.473170000000     0.523460000000     0.283620000000     0.0289424  
C314     C      0.486460000000     0.485890000000     0.295340000000    -0.114966   
C315     C      0.499700000000     0.448340000000     0.283590000000     0.0289475  
C316     C      0.500020000000     0.448500000000     0.260590000000    -0.0688042  
C317     C      0.523710000000     0.473870000000     0.010790000000    -0.0681839  
C318     C      0.485860000000     0.486260000000     0.998990000000     0.0239907  
C319     C      0.448040000000     0.498570000000     0.010830000000    -0.0681574  
C320     C      0.447990000000     0.498230000000     0.033830000000     0.0286005  
C321     C      0.485930000000     0.486140000000     0.045560000000    -0.114813   
C322     C      0.523820000000     0.474100000000     0.033790000000     0.0286462  
C323     C      0.485840000000     0.486330000000     0.974460000000     0.023832   
C324     C      0.523670000000     0.498700000000     0.962630000000    -0.068048   
C325     C      0.523750000000     0.498460000000     0.939630000000     0.028553   
C326     C      0.485830000000     0.486430000000     0.927880000000    -0.114719   
C327     C      0.447910000000     0.474360000000     0.939630000000     0.0285633  
C328     C      0.448000000000     0.474030000000     0.962620000000    -0.0680255  
C329     C      0.448870000000     0.999730000000     0.212760000000    -0.0688714  
C330     C      0.486320000000     0.986110000000     0.224440000000     0.0240609  
C331     C      0.523710000000     0.972480000000     0.212720000000    -0.0687748  
C332     C      0.523800000000     0.972820000000     0.189720000000     0.0288758  
C333     C      0.486200000000     0.986070000000     0.178000000000    -0.114908   
C334     C      0.448670000000     0.999350000000     0.189760000000     0.0288007  
C335     C      0.486380000000     0.986150000000     0.248800000000     0.0239047  
C336     C      0.472780000000     0.023580000000     0.260500000000    -0.0686721  
C337     C      0.473190000000     0.023750000000     0.283500000000     0.0290054  
C338     C      0.486490000000     0.986200000000     0.295240000000    -0.115044   
C339     C      0.499730000000     0.948630000000     0.283500000000     0.0289478  
C340     C      0.500040000000     0.948740000000     0.260500000000    -0.068769   
C341     C      0.523740000000     0.973810000000     0.010690000000    -0.0681283  
C342     C      0.485890000000     0.986170000000     0.998880000000     0.0238994  
C343     C      0.448060000000     0.998480000000     0.010730000000    -0.0681841  
C344     C      0.448010000000     0.998150000000     0.033730000000     0.0285237  
C345     C      0.485940000000     0.986080000000     0.045460000000    -0.114803   
C346     C      0.523840000000     0.974040000000     0.033690000000     0.0285935  
C347     C      0.485870000000     0.986240000000     0.974350000000     0.0239164  
C348     C      0.523700000000     0.998620000000     0.962530000000    -0.0682285  
C349     C      0.523770000000     0.998380000000     0.939530000000     0.0285096  
C350     C      0.485860000000     0.986340000000     0.927780000000    -0.114689   
C351     C      0.447940000000     0.974250000000     0.939520000000     0.0285005  
C352     C      0.448030000000     0.973920000000     0.962520000000    -0.0680595  
C353     C      0.448110000000     0.784130000000     0.105660000000    -0.0680831  
C354     C      0.486020000000     0.760570000000     0.111810000000     0.0239001  
C355     C      0.523810000000     0.784270000000     0.117970000000    -0.0682567  
C356     C      0.523800000000     0.830220000000     0.117820000000     0.0285311  
C357     C      0.485820000000     0.853630000000     0.111800000000    -0.114723   
C358     C      0.447930000000     0.830090000000     0.105800000000     0.0286199  
C359     C      0.486140000000     0.711550000000     0.111830000000     0.0239024  
C360     C      0.448380000000     0.687870000000     0.118050000000    -0.0682379  
C361     C      0.448390000000     0.641920000000     0.117940000000     0.0285801  
C362     C      0.486330000000     0.618500000000     0.111900000000    -0.114782   
C363     C      0.524200000000     0.642010000000     0.105840000000     0.0286445  
C364     C      0.524020000000     0.687970000000     0.105660000000    -0.0680834  
C365     C      0.523990000000     0.187990000000     0.105600000000    -0.0680848  
C366     C      0.486100000000     0.211550000000     0.111780000000     0.0239151  
C367     C      0.448340000000     0.187850000000     0.117980000000    -0.0682688  
C368     C      0.448360000000     0.141910000000     0.117850000000     0.0286519  
C369     C      0.486300000000     0.118500000000     0.111790000000    -0.114852   
C370     C      0.524170000000     0.142030000000     0.105740000000     0.0286577  
C371     C      0.485980000000     0.260570000000     0.111800000000     0.0239107  
C372     C      0.523770000000     0.284250000000     0.117970000000    -0.0682539  
C373     C      0.523760000000     0.330200000000     0.117860000000     0.0286073  
C374     C      0.485790000000     0.353630000000     0.111860000000    -0.114856   
C375     C      0.447890000000     0.330110000000     0.105840000000     0.0286573  
C376     C      0.448070000000     0.284150000000     0.105660000000    -0.0681064  
C377     C      0.972920000000     0.523520000000     0.260660000000    -0.0687213  
C378     C      0.986550000000     0.486140000000     0.248940000000     0.0239     
C379     C      0.000170000000     0.448680000000     0.260610000000    -0.0685078  
C380     C      0.999810000000     0.448480000000     0.283610000000     0.0286482  
C381     C      0.986550000000     0.486010000000     0.295380000000    -0.114964   
C382     C      0.973280000000     0.523600000000     0.283670000000     0.0288716  
C383     C      0.986540000000     0.486210000000     0.224580000000     0.0239317  
C384     C      0.949120000000     0.499870000000     0.212890000000    -0.068709   
C385     C      0.948960000000     0.499590000000     0.189890000000     0.0289076  
C386     C      0.986510000000     0.486350000000     0.178140000000    -0.115016   
C387     C      0.024080000000     0.473050000000     0.189860000000     0.0290085  
C388     C      0.023950000000     0.472610000000     0.212860000000    -0.0686948  
C389     C      0.948470000000     0.474350000000     0.962670000000    -0.0681103  
C390     C      0.986320000000     0.486680000000     0.974490000000     0.0238496  
C391     C      0.024140000000     0.499030000000     0.962660000000    -0.0680479  
C392     C      0.024210000000     0.498760000000     0.939660000000     0.0286845  
C393     C      0.986280000000     0.486700000000     0.927920000000    -0.114879   
C394     C      0.948370000000     0.474650000000     0.939670000000     0.0286066  
C395     C      0.986340000000     0.486640000000     0.999020000000     0.0238482  
C396     C      0.948520000000     0.498970000000     0.010860000000    -0.0681232  
C397     C      0.948460000000     0.498650000000     0.033860000000     0.0285628  
C398     C      0.986390000000     0.486570000000     0.045600000000    -0.114818   
C399     C      0.024290000000     0.474520000000     0.033830000000     0.0286789  
C400     C      0.024190000000     0.474270000000     0.010830000000    -0.0680703  
C401     C      0.949120000000     0.000010000000     0.212800000000    -0.0684281  
C402     C      0.986550000000     0.986380000000     0.224490000000     0.0237853  
C403     C      0.023960000000     0.972760000000     0.212780000000    -0.0686121  
C404     C      0.024090000000     0.973150000000     0.189780000000     0.0289109  
C405     C      0.986520000000     0.986430000000     0.178050000000    -0.114888   
C406     C      0.948960000000     0.999680000000     0.189800000000     0.0285454  
C407     C      0.986560000000     0.986350000000     0.248850000000     0.0237846  
C408     C      0.972940000000     0.023760000000     0.260560000000    -0.0686114  
C409     C      0.973310000000     0.023890000000     0.283560000000     0.0289048  
C410     C      0.986580000000     0.986320000000     0.295290000000    -0.114881   
C411     C      0.999840000000     0.948760000000     0.283540000000     0.0285472  
C412     C      0.000200000000     0.948920000000     0.260540000000    -0.0684379  
C413     C      0.024170000000     0.998940000000     0.962580000000    -0.068152   
C414     C      0.986350000000     0.986580000000     0.974410000000     0.0238681  
C415     C      0.948500000000     0.974240000000     0.962590000000    -0.0681617  
C416     C      0.948400000000     0.974550000000     0.939590000000     0.028602   
C417     C      0.986310000000     0.986620000000     0.927830000000    -0.114886   
C418     C      0.024230000000     0.998680000000     0.939580000000     0.0286122  
C419     C      0.986370000000     0.986560000000     0.998940000000     0.0238275  
C420     C      0.024210000000     0.974210000000     0.010750000000    -0.0680415  
C421     C      0.024310000000     0.974470000000     0.033750000000     0.0286499  
C422     C      0.986410000000     0.986510000000     0.045510000000    -0.114727   
C423     C      0.948480000000     0.998580000000     0.033780000000     0.0284389  
C424     C      0.948540000000     0.998880000000     0.010780000000    -0.0681677  
C425     C      0.024200000000     0.784690000000     0.118020000000    -0.068154   
C426     C      0.986420000000     0.760980000000     0.111860000000     0.0238083  
C427     C      0.948510000000     0.784540000000     0.105700000000    -0.0680886  
C428     C      0.948330000000     0.830510000000     0.105840000000     0.0286235  
C429     C      0.986220000000     0.854040000000     0.111850000000    -0.114859   
C430     C      0.024190000000     0.830630000000     0.117880000000     0.0286656  
C431     C      0.986540000000     0.711970000000     0.111880000000     0.0238258  
C432     C      0.024430000000     0.688390000000     0.105720000000    -0.0680378  
C433     C      0.024600000000     0.642420000000     0.105890000000     0.0287605  
C434     C      0.986730000000     0.618910000000     0.111940000000    -0.114915   
C435     C      0.948780000000     0.642340000000     0.117970000000     0.0286438  
C436     C      0.948760000000     0.688280000000     0.118090000000    -0.0682877  
C437     C      0.948480000000     0.284560000000     0.105690000000    -0.0681174  
C438     C      0.986390000000     0.260980000000     0.111840000000     0.0238226  
C439     C      0.024170000000     0.284670000000     0.118020000000    -0.068164   
C440     C      0.024150000000     0.330620000000     0.117910000000     0.0286817  
C441     C      0.986190000000     0.354040000000     0.111890000000    -0.114876   
C442     C      0.948300000000     0.330520000000     0.105860000000     0.0286353  
C443     C      0.986500000000     0.211970000000     0.111830000000     0.0238078  
C444     C      0.948730000000     0.188270000000     0.118030000000    -0.068259   
C445     C      0.948750000000     0.142320000000     0.117890000000     0.0285811  
C446     C      0.986710000000     0.118910000000     0.111850000000    -0.114851   
C447     C      0.024580000000     0.142440000000     0.105810000000     0.0287451  
C448     C      0.024400000000     0.188400000000     0.105660000000    -0.0680011  
H1       H      0.767440000000     0.553360000000     0.600450000000     0.0470578  
H2       H      0.847490000000     0.553750000000     0.600950000000     0.0343028  
H3       H      0.847670000000     0.418640000000     0.622900000000     0.0339847  
H4       H      0.767680000000     0.418720000000     0.623370000000     0.0469156  
H5       H      0.705280000000     0.418500000000     0.600520000000     0.0470769  
H6       H      0.625240000000     0.418110000000     0.601020000000     0.0343035  
H7       H      0.625050000000     0.553300000000     0.622830000000     0.0339783  
H8       H      0.705040000000     0.553230000000     0.623300000000     0.0469331  
H9       H      0.205260000000     0.418490000000     0.600490000000     0.0470778  
H10      H      0.125220000000     0.418100000000     0.601020000000     0.0343232  
H11      H      0.125070000000     0.553300000000     0.622830000000     0.0339981  
H12      H      0.205060000000     0.553220000000     0.623270000000     0.04694    
H13      H      0.267440000000     0.553340000000     0.600410000000     0.0470671  
H14      H      0.347490000000     0.553730000000     0.600900000000     0.0343078  
H15      H      0.347680000000     0.418630000000     0.622840000000     0.0339897  
H16      H      0.267690000000     0.418700000000     0.623320000000     0.0469512  
H17      H      0.767270000000     0.053870000000     0.600370000000     0.0470354  
H18      H      0.847320000000     0.054260000000     0.600880000000     0.0342994  
H19      H      0.847490000000     0.919130000000     0.622790000000     0.0339682  
H20      H      0.767500000000     0.919210000000     0.623250000000     0.0469445  
H21      H      0.705110000000     0.919010000000     0.600400000000     0.0470371  
H22      H      0.625070000000     0.918620000000     0.600900000000     0.0343226  
H23      H      0.624870000000     0.053790000000     0.622740000000     0.0340018  
H24      H      0.704860000000     0.053720000000     0.623210000000     0.0469165  
H25      H      0.205090000000     0.918990000000     0.600380000000     0.0470364  
H26      H      0.125040000000     0.918610000000     0.600910000000     0.0343436  
H27      H      0.124900000000     0.053780000000     0.622760000000     0.034007   
H28      H      0.204890000000     0.053700000000     0.623200000000     0.0469358  
H29      H      0.267260000000     0.053850000000     0.600330000000     0.0470531  
H30      H      0.347310000000     0.054240000000     0.600820000000     0.0343118  
H31      H      0.347500000000     0.919100000000     0.622720000000     0.0339934  
H32      H      0.267510000000     0.919180000000     0.623200000000     0.0469161  
H33      H      0.509340000000     0.553150000000     0.502330000000     0.0470424  
H34      H      0.508330000000     0.553420000000     0.542370000000     0.0342991  
H35      H      0.464600000000     0.418270000000     0.542390000000     0.0343034  
H36      H      0.463670000000     0.418470000000     0.502340000000     0.0470309  
H37      H      0.509350000000     0.418470000000     0.471110000000     0.0470383  
H38      H      0.508400000000     0.418240000000     0.431060000000     0.0343221  
H39      H      0.464650000000     0.553380000000     0.431060000000     0.0343253  
H40      H      0.463670000000     0.553140000000     0.471110000000     0.047032   
H41      H      0.463560000000     0.919040000000     0.502230000000     0.0470215  
H42      H      0.464430000000     0.918830000000     0.542270000000     0.0343222  
H43      H      0.508160000000     0.053980000000     0.542280000000     0.0343221  
H44      H      0.509220000000     0.053720000000     0.502240000000     0.0470397  
H45      H      0.463620000000     0.053700000000     0.470980000000     0.0470356  
H46      H      0.464660000000     0.053900000000     0.430940000000     0.0343049  
H47      H      0.508410000000     0.918760000000     0.430980000000     0.0343002  
H48      H      0.509310000000     0.919030000000     0.471030000000     0.0470454  
H49      H      0.963600000000     0.418410000000     0.502390000000     0.0470276  
H50      H      0.964540000000     0.418220000000     0.542440000000     0.0343074  
H51      H      0.008290000000     0.553370000000     0.542400000000     0.0344318  
H52      H      0.009280000000     0.553080000000     0.502360000000     0.0471526  
H53      H      0.963590000000     0.553070000000     0.471140000000     0.0470541  
H54      H      0.964580000000     0.553330000000     0.431100000000     0.0343147  
H55      H      0.008310000000     0.418180000000     0.431090000000     0.0344146  
H56      H      0.009250000000     0.418400000000     0.471140000000     0.0471503  
H57      H      0.767600000000     0.418420000000     0.372970000000     0.0470798  
H58      H      0.847650000000     0.418030000000     0.372480000000     0.0342786  
H59      H      0.847830000000     0.553220000000     0.350650000000     0.0339447  
H60      H      0.767840000000     0.553130000000     0.350180000000     0.0469822  
H61      H      0.705430000000     0.553270000000     0.373010000000     0.0470608  
H62      H      0.625390000000     0.553660000000     0.372500000000     0.0343147  
H63      H      0.625220000000     0.418530000000     0.350580000000     0.0339822  
H64      H      0.705210000000     0.418620000000     0.350120000000     0.0469269  
H65      H      0.267830000000     0.553120000000     0.350210000000     0.0469382  
H66      H      0.347820000000     0.553190000000     0.350650000000     0.0339738  
H67      H      0.347660000000     0.418010000000     0.372490000000     0.0343117  
H68      H      0.267610000000     0.418400000000     0.373010000000     0.047064   
H69      H      0.205200000000     0.418610000000     0.350170000000     0.0469506  
H70      H      0.125210000000     0.418530000000     0.350640000000     0.0339949  
H71      H      0.125400000000     0.553660000000     0.372560000000     0.0343201  
H72      H      0.205450000000     0.553260000000     0.373070000000     0.0470656  
H73      H      0.963490000000     0.918980000000     0.502290000000     0.0470087  
H74      H      0.964380000000     0.918790000000     0.542340000000     0.0342996  
H75      H      0.008130000000     0.053930000000     0.542320000000     0.0344195  
H76      H      0.009170000000     0.053660000000     0.502280000000     0.0471242  
H77      H      0.963540000000     0.053640000000     0.471040000000     0.0470051  
H78      H      0.964590000000     0.053850000000     0.431000000000     0.0343194  
H79      H      0.008320000000     0.918700000000     0.431030000000     0.0344161  
H80      H      0.009210000000     0.918960000000     0.471080000000     0.047114   
H81      H      0.767870000000     0.053540000000     0.350050000000     0.0469279  
H82      H      0.847860000000     0.053620000000     0.350530000000     0.0339788  
H83      H      0.847670000000     0.918470000000     0.372420000000     0.0343025  
H84      H      0.767620000000     0.918860000000     0.372910000000     0.0470423  
H85      H      0.705240000000     0.919020000000     0.350050000000     0.046914   
H86      H      0.625250000000     0.918940000000     0.350510000000     0.0339817  
H87      H      0.625410000000     0.054100000000     0.372370000000     0.0343162  
H88      H      0.705450000000     0.053720000000     0.372890000000     0.0470175  
H89      H      0.267640000000     0.918840000000     0.372940000000     0.0470486  
H90      H      0.347690000000     0.918450000000     0.372420000000     0.0343092  
H91      H      0.347850000000     0.053590000000     0.350520000000     0.033991   
H92      H      0.267850000000     0.053510000000     0.350080000000     0.0469587  
H93      H      0.205480000000     0.053700000000     0.372940000000     0.0470535  
H94      H      0.125430000000     0.054090000000     0.372440000000     0.0343256  
H95      H      0.125230000000     0.918930000000     0.350580000000     0.0339894  
H96      H      0.205220000000     0.919000000000     0.350110000000     0.0469307  
H97      H      0.552840000000     0.510270000000     0.751960000000     0.0479487  
H98      H      0.552940000000     0.510130000000     0.792200000000     0.0338276  
H99      H      0.419030000000     0.462540000000     0.792160000000     0.0338164  
H100     H      0.419300000000     0.462220000000     0.751920000000     0.0479658  
H101     H      0.462110000000     0.419400000000     0.721530000000     0.047951   
H102     H      0.462440000000     0.419120000000     0.681290000000     0.0338247  
H103     H      0.510050000000     0.553030000000     0.681240000000     0.0338237  
H104     H      0.510170000000     0.552940000000     0.721480000000     0.0479584  
H105     H      0.419200000000     0.962450000000     0.751820000000     0.0479108  
H106     H      0.418970000000     0.962660000000     0.792060000000     0.0338365  
H107     H      0.552880000000     0.010280000000     0.792100000000     0.0339952  
H108     H      0.552730000000     0.010530000000     0.751860000000     0.0479131  
H109     H      0.510040000000     0.053250000000     0.721400000000     0.0479715  
H110     H      0.509880000000     0.053430000000     0.681160000000     0.0338011  
H111     H      0.462290000000     0.919510000000     0.681150000000     0.0338281  
H112     H      0.461980000000     0.919710000000     0.721400000000     0.0479405  
H113     H      0.418660000000     0.767720000000     0.850040000000     0.0469644  
H114     H      0.418570000000     0.847710000000     0.850480000000     0.0339805  
H115     H      0.553710000000     0.847560000000     0.872390000000     0.0343051  
H116     H      0.553320000000     0.767510000000     0.872920000000     0.0470412  
H117     H      0.553170000000     0.705080000000     0.850100000000     0.0469478  
H118     H      0.553240000000     0.625090000000     0.850590000000     0.0339798  
H119     H      0.418070000000     0.625300000000     0.872430000000     0.0343061  
H120     H      0.418460000000     0.705350000000     0.872910000000     0.0470379  
H121     H      0.418430000000     0.205310000000     0.872950000000     0.0470759  
H122     H      0.418040000000     0.125260000000     0.872410000000     0.0343255  
H123     H      0.553210000000     0.125120000000     0.850560000000     0.0339931  
H124     H      0.553130000000     0.205110000000     0.850130000000     0.0469666  
H125     H      0.553280000000     0.267480000000     0.873000000000     0.0470756  
H126     H      0.553680000000     0.347530000000     0.872510000000     0.0343203  
H127     H      0.418540000000     0.347740000000     0.850610000000     0.0340019  
H128     H      0.418620000000     0.267740000000     0.850120000000     0.046948   
H129     H      0.053050000000     0.510410000000     0.751960000000     0.0479661  
H130     H      0.053220000000     0.510320000000     0.792210000000     0.0337998  
H131     H      0.919310000000     0.462730000000     0.792230000000     0.0338032  
H132     H      0.919520000000     0.462360000000     0.751990000000     0.0479832  
H133     H      0.962270000000     0.419510000000     0.721590000000     0.0479618  
H134     H      0.962530000000     0.419190000000     0.681350000000     0.0338094  
H135     H      0.010140000000     0.553100000000     0.681250000000     0.033918   
H136     H      0.010340000000     0.553040000000     0.721490000000     0.0480615  
H137     H      0.919420000000     0.962590000000     0.751900000000     0.0478953  
H138     H      0.919250000000     0.962860000000     0.792150000000     0.0338427  
H139     H      0.053160000000     0.010470000000     0.792120000000     0.0339749  
H140     H      0.052950000000     0.010660000000     0.751880000000     0.0479185  
H141     H      0.010210000000     0.053360000000     0.721430000000     0.0480591  
H142     H      0.009980000000     0.053490000000     0.681190000000     0.0339108  
H143     H      0.962370000000     0.919580000000     0.681230000000     0.0337922  
H144     H      0.962140000000     0.919830000000     0.721480000000     0.0479475  
H145     H      0.053710000000     0.767750000000     0.872950000000     0.0470638  
H146     H      0.054090000000     0.847790000000     0.872430000000     0.0342973  
H147     H      0.918930000000     0.847950000000     0.850570000000     0.0339787  
H148     H      0.919010000000     0.767960000000     0.850110000000     0.046919   
H149     H      0.918850000000     0.705580000000     0.872980000000     0.0470531  
H150     H      0.918460000000     0.625540000000     0.872490000000     0.0343048  
H151     H      0.053610000000     0.625330000000     0.850600000000     0.0339594  
H152     H      0.053530000000     0.705320000000     0.850120000000     0.0469495  
H153     H      0.918980000000     0.267980000000     0.850190000000     0.0469382  
H154     H      0.918910000000     0.347980000000     0.850670000000     0.033989   
H155     H      0.054070000000     0.347770000000     0.872540000000     0.0343158  
H156     H      0.053680000000     0.267720000000     0.873020000000     0.0470417  
H157     H      0.053490000000     0.205360000000     0.850150000000     0.0469429  
H158     H      0.053580000000     0.125360000000     0.850580000000     0.0339769  
H159     H      0.918430000000     0.125510000000     0.872480000000     0.03433    
H160     H      0.918820000000     0.205550000000     0.873020000000     0.0470435  
H161     H      0.553060000000     0.461910000000     0.221460000000     0.0479682  
H162     H      0.553160000000     0.462180000000     0.181220000000     0.0338241  
H163     H      0.419260000000     0.509800000000     0.181310000000     0.0338277  
H164     H      0.419530000000     0.509990000000     0.221550000000     0.0479497  
H165     H      0.462340000000     0.552690000000     0.251960000000     0.0479439  
H166     H      0.462650000000     0.552850000000     0.292210000000     0.0338182  
H167     H      0.510250000000     0.418940000000     0.292160000000     0.0338081  
H168     H      0.510400000000     0.419160000000     0.251920000000     0.0479674  
H169     H      0.418530000000     0.509090000000     0.002370000000     0.0470607  
H170     H      0.418350000000     0.508020000000     0.042420000000     0.0343205  
H171     H      0.553490000000     0.464270000000     0.042340000000     0.0342993  
H172     H      0.553200000000     0.463400000000     0.002300000000     0.0470723  
H173     H      0.553180000000     0.509170000000     0.971110000000     0.0470203  
H174     H      0.553400000000     0.508290000000     0.931070000000     0.0343324  
H175     H      0.418250000000     0.464560000000     0.931050000000     0.0343282  
H176     H      0.418490000000     0.463520000000     0.971100000000     0.0469993  
H177     H      0.553080000000     0.962080000000     0.221370000000     0.0479311  
H178     H      0.553170000000     0.962280000000     0.181120000000     0.033823   
H179     H      0.419260000000     0.009870000000     0.181190000000     0.0339247  
H180     H      0.419540000000     0.010140000000     0.221440000000     0.0480383  
H181     H      0.462350000000     0.052910000000     0.251830000000     0.0479499  
H182     H      0.462670000000     0.053150000000     0.292070000000     0.0338171  
H183     H      0.510290000000     0.919240000000     0.292090000000     0.0338139  
H184     H      0.510430000000     0.919380000000     0.251840000000     0.0479376  
H185     H      0.418550000000     0.008990000000     0.002260000000     0.0471353  
H186     H      0.418360000000     0.007950000000     0.042310000000     0.0344103  
H187     H      0.553510000000     0.964230000000     0.042250000000     0.0343064  
H188     H      0.553230000000     0.963330000000     0.002200000000     0.0470353  
H189     H      0.553200000000     0.009100000000     0.971010000000     0.0471555  
H190     H      0.553430000000     0.008220000000     0.930970000000     0.0344159  
H191     H      0.418290000000     0.964460000000     0.930950000000     0.0343265  
H192     H      0.418530000000     0.963400000000     0.971000000000     0.0469981  
H193     H      0.553360000000     0.767400000000     0.123200000000     0.0469504  
H194     H      0.553440000000     0.847390000000     0.122710000000     0.0339945  
H195     H      0.418240000000     0.847170000000     0.100910000000     0.0343221  
H196     H      0.418630000000     0.767120000000     0.100430000000     0.047051   
H197     H      0.418850000000     0.704760000000     0.123310000000     0.0469326  
H198     H      0.418770000000     0.624770000000     0.122870000000     0.0339841  
H199     H      0.553870000000     0.624910000000     0.100920000000     0.0343091  
H200     H      0.553480000000     0.704960000000     0.100380000000     0.0470423  
H201     H      0.418810000000     0.204730000000     0.123250000000     0.0469431  
H202     H      0.418730000000     0.124740000000     0.122770000000     0.0339775  
H203     H      0.553840000000     0.124940000000     0.100820000000     0.0343246  
H204     H      0.553450000000     0.204990000000     0.100330000000     0.0470538  
H205     H      0.553320000000     0.267360000000     0.123200000000     0.0469422  
H206     H      0.553400000000     0.347350000000     0.122760000000     0.033979   
H207     H      0.418200000000     0.347210000000     0.100960000000     0.0343159  
H208     H      0.418590000000     0.267160000000     0.100420000000     0.0470674  
H209     H      0.010580000000     0.419360000000     0.251930000000     0.0479246  
H210     H      0.010350000000     0.419060000000     0.292170000000     0.0339497  
H211     H      0.962750000000     0.552980000000     0.292260000000     0.0338196  
H212     H      0.962520000000     0.552900000000     0.252020000000     0.0479186  
H213     H      0.919770000000     0.510260000000     0.221570000000     0.0479092  
H214     H      0.919560000000     0.510150000000     0.181320000000     0.0338221  
H215     H      0.053470000000     0.462540000000     0.181270000000     0.0338051  
H216     H      0.053300000000     0.462180000000     0.221510000000     0.0479544  
H217     H      0.053650000000     0.509510000000     0.971130000000     0.0470506  
H218     H      0.053860000000     0.508570000000     0.931090000000     0.0343018  
H219     H      0.918710000000     0.464840000000     0.931110000000     0.0342959  
H220     H      0.918970000000     0.463850000000     0.971150000000     0.0470323  
H221     H      0.919010000000     0.509480000000     0.002400000000     0.0470485  
H222     H      0.918820000000     0.508450000000     0.042440000000     0.0343204  
H223     H      0.053960000000     0.464700000000     0.042390000000     0.034314   
H224     H      0.053680000000     0.463790000000     0.002350000000     0.0470718  
H225     H      0.053310000000     0.962350000000     0.221440000000     0.0479193  
H226     H      0.053480000000     0.962630000000     0.181190000000     0.0338347  
H227     H      0.919570000000     0.010230000000     0.181230000000     0.0339875  
H228     H      0.919780000000     0.010410000000     0.221470000000     0.0478951  
H229     H      0.962530000000     0.053120000000     0.251910000000     0.0479191  
H230     H      0.962770000000     0.053270000000     0.292150000000     0.0338337  
H231     H      0.010380000000     0.919360000000     0.292120000000     0.0339756  
H232     H      0.010600000000     0.919580000000     0.251870000000     0.0478959  
H233     H      0.919010000000     0.963740000000     0.971070000000     0.0470406  
H234     H      0.918740000000     0.964740000000     0.931020000000     0.0343088  
H235     H      0.053880000000     0.008500000000     0.931000000000     0.0344047  
H236     H      0.053680000000     0.009430000000     0.971050000000     0.0471504  
H237     H      0.053710000000     0.963730000000     0.002270000000     0.0470324  
H238     H      0.053980000000     0.964650000000     0.042310000000     0.0343048  
H239     H      0.918830000000     0.008380000000     0.042350000000     0.0344181  
H240     H      0.919030000000     0.009380000000     0.002310000000     0.047128   
H241     H      0.919040000000     0.767540000000     0.100460000000     0.0470573  
H242     H      0.918650000000     0.847590000000     0.100930000000     0.034309   
H243     H      0.053820000000     0.847800000000     0.122780000000     0.0339822  
H244     H      0.053740000000     0.767810000000     0.123270000000     0.0469325  
H245     H      0.053890000000     0.705370000000     0.100450000000     0.0470682  
H246     H      0.054280000000     0.625330000000     0.100990000000     0.0343006  
H247     H      0.919150000000     0.625180000000     0.122900000000     0.0339668  
H248     H      0.919230000000     0.705170000000     0.123340000000     0.0469491  
H249     H      0.053710000000     0.267780000000     0.123260000000     0.0469433  
H250     H      0.053790000000     0.347770000000     0.122810000000     0.0339791  
H251     H      0.918620000000     0.347610000000     0.100970000000     0.0343065  
H252     H      0.919010000000     0.267570000000     0.100450000000     0.0470743  
H253     H      0.919200000000     0.205150000000     0.123280000000     0.0469543  
H254     H      0.919130000000     0.125160000000     0.122810000000     0.0340011  
H255     H      0.054260000000     0.125350000000     0.100900000000     0.0343197  
H256     H      0.053860000000     0.205400000000     0.100400000000     0.0470614  
Ni1      Ni     0.947210000000     0.986670000000     0.111800000000     0.994289   
Ni2      Ni     0.025710000000     0.986280000000     0.111790000000     0.9945     
Ni3      Ni     0.947200000000     0.486680000000     0.111890000000     0.994553   
Ni4      Ni     0.025710000000     0.486270000000     0.111870000000     0.994769   
Ni5      Ni     0.446810000000     0.986250000000     0.111760000000     0.994631   
Ni6      Ni     0.525320000000     0.985870000000     0.111720000000     0.994481   
Ni7      Ni     0.446810000000     0.486260000000     0.111860000000     0.994338   
Ni8      Ni     0.525310000000     0.485860000000     0.111820000000     0.994677   
Ni9      Ni     0.025510000000     0.986850000000     0.861550000000     0.994661   
Ni10     Ni     0.947010000000     0.986450000000     0.861560000000     0.993996   
Ni11     Ni     0.947010000000     0.486460000000     0.861640000000     0.994489   
Ni12     Ni     0.025520000000     0.486850000000     0.861640000000     0.994641   
Ni13     Ni     0.446630000000     0.986210000000     0.861490000000     0.994282   
Ni14     Ni     0.525130000000     0.986610000000     0.861500000000     0.994551   
Ni15     Ni     0.525140000000     0.486600000000     0.861610000000     0.994623   
Ni16     Ni     0.446640000000     0.486220000000     0.861590000000     0.994189   
Ni17     Ni     0.986740000000     0.947030000000     0.361550000000     0.994229   
Ni18     Ni     0.986350000000     0.025540000000     0.361550000000     0.99455    
Ni19     Ni     0.986330000000     0.525120000000     0.361660000000     0.994618   
Ni20     Ni     0.986710000000     0.446610000000     0.361620000000     0.994311   
Ni21     Ni     0.486740000000     0.947010000000     0.361510000000     0.994549   
Ni22     Ni     0.486350000000     0.025520000000     0.361490000000     0.994766   
Ni23     Ni     0.486720000000     0.446590000000     0.361600000000     0.994535   
Ni24     Ni     0.486320000000     0.525100000000     0.361610000000     0.994708   
Ni25     Ni     0.986390000000     0.025700000000     0.611780000000     0.99419    
Ni26     Ni     0.985990000000     0.947190000000     0.611800000000     0.994544   
Ni27     Ni     0.986560000000     0.525200000000     0.611850000000     0.994556   
Ni28     Ni     0.986170000000     0.446700000000     0.611900000000     0.994216   
Ni29     Ni     0.485990000000     0.947190000000     0.611740000000     0.994357   
Ni30     Ni     0.486380000000     0.025690000000     0.611730000000     0.994511   
Ni31     Ni     0.486560000000     0.525200000000     0.611830000000     0.994577   
Ni32     Ni     0.486170000000     0.446690000000     0.611860000000     0.994731   
O1       O      0.949840000000     0.986340000000     0.143320000000    -0.438166   
O2       O      0.949800000000     0.987240000000     0.080290000000    -0.438333   
O3       O      0.949650000000     0.923620000000     0.111510000000    -0.437527   
O4       O      0.949980000000     0.049570000000     0.112100000000    -0.438831   
O5       O      0.023270000000     0.049330000000     0.111510000000    -0.437399   
O6       O      0.022940000000     0.923380000000     0.112070000000    -0.438842   
O7       O      0.023080000000     0.985730000000     0.080270000000    -0.438106   
O8       O      0.023150000000     0.986580000000     0.143300000000    -0.438183   
O9       O      0.949830000000     0.486320000000     0.143400000000    -0.438188   
O10      O      0.949780000000     0.487280000000     0.080370000000    -0.438098   
O11      O      0.949630000000     0.423630000000     0.111580000000    -0.437528   
O12      O      0.949990000000     0.549570000000     0.112200000000    -0.439      
O13      O      0.023280000000     0.549320000000     0.111600000000    -0.43747    
O14      O      0.022920000000     0.423380000000     0.112140000000    -0.438963   
O15      O      0.023070000000     0.485750000000     0.080350000000    -0.438103   
O16      O      0.023140000000     0.486550000000     0.143380000000    -0.438088   
O17      O      0.449590000000     0.049150000000     0.112050000000    -0.438944   
O18      O      0.449250000000     0.923210000000     0.111470000000    -0.437569   
O19      O      0.449470000000     0.985940000000     0.143270000000    -0.438218   
O20      O      0.449360000000     0.986820000000     0.080240000000    -0.438208   
O21      O      0.522640000000     0.985310000000     0.080210000000    -0.438265   
O22      O      0.522780000000     0.986180000000     0.143240000000    -0.438189   
O23      O      0.522550000000     0.922970000000     0.112010000000    -0.438915   
O24      O      0.522870000000     0.048920000000     0.111430000000    -0.437513   
O25      O      0.449230000000     0.423220000000     0.111560000000    -0.437537   
O26      O      0.449590000000     0.549160000000     0.112160000000    -0.43887    
O27      O      0.449350000000     0.486850000000     0.080340000000    -0.438121   
O28      O      0.449470000000     0.485920000000     0.143380000000    -0.43808    
O29      O      0.522780000000     0.486150000000     0.143340000000    -0.438202   
O30      O      0.522630000000     0.485320000000     0.080310000000    -0.438275   
O31      O      0.522880000000     0.548900000000     0.111550000000    -0.437557   
O32      O      0.522520000000     0.422960000000     0.112100000000    -0.438949   
O33      O      0.023080000000     0.923810000000     0.861830000000    -0.437548   
O34      O      0.022720000000     0.049750000000     0.861260000000    -0.438785   
O35      O      0.022920000000     0.987400000000     0.893060000000    -0.438325   
O36      O      0.022890000000     0.986550000000     0.830030000000    -0.438009   
O37      O      0.949580000000     0.986780000000     0.830040000000    -0.437976   
O38      O      0.949640000000     0.985880000000     0.893080000000    -0.438149   
O39      O      0.949430000000     0.049500000000     0.861850000000    -0.437353   
O40      O      0.949790000000     0.923550000000     0.861260000000    -0.438903   
O41      O      0.949450000000     0.549510000000     0.861910000000    -0.437502   
O42      O      0.949780000000     0.423560000000     0.861360000000    -0.438923   
O43      O      0.949630000000     0.485930000000     0.893150000000    -0.438221   
O44      O      0.949610000000     0.486740000000     0.830120000000    -0.438049   
O45      O      0.022920000000     0.486490000000     0.830120000000    -0.43793    
O46      O      0.022910000000     0.487440000000     0.893150000000    -0.438152   
O47      O      0.023070000000     0.423800000000     0.861940000000    -0.437488   
O48      O      0.022740000000     0.549750000000     0.861330000000    -0.438955   
O49      O      0.449240000000     0.986550000000     0.829980000000    -0.438151   
O50      O      0.449220000000     0.985620000000     0.893010000000    -0.438028   
O51      O      0.449060000000     0.049260000000     0.861790000000    -0.437414   
O52      O      0.449410000000     0.923310000000     0.861190000000    -0.438766   
O53      O      0.522710000000     0.923570000000     0.861780000000    -0.43751    
O54      O      0.522350000000     0.049510000000     0.861230000000    -0.438851   
O55      O      0.522510000000     0.987150000000     0.893020000000    -0.438048   
O56      O      0.522550000000     0.986330000000     0.829990000000    -0.438335   
O57      O      0.522580000000     0.486270000000     0.830100000000    -0.43825    
O58      O      0.522500000000     0.487180000000     0.893130000000    -0.438094   
O59      O      0.522700000000     0.423560000000     0.861910000000    -0.437472   
O60      O      0.522370000000     0.549500000000     0.861310000000    -0.438925   
O61      O      0.449080000000     0.549270000000     0.861860000000    -0.437521   
O62      O      0.449400000000     0.423320000000     0.861310000000    -0.438788   
O63      O      0.449210000000     0.485680000000     0.893110000000    -0.438113   
O64      O      0.449270000000     0.486510000000     0.830070000000    -0.438014   
O65      O      0.923700000000     0.949470000000     0.361820000000    -0.437561   
O66      O      0.049640000000     0.949810000000     0.361270000000    -0.438912   
O67      O      0.987280000000     0.949630000000     0.393070000000    -0.43806    
O68      O      0.986450000000     0.949640000000     0.330030000000    -0.438042   
O69      O      0.986690000000     0.022950000000     0.330040000000    -0.438157   
O70      O      0.985760000000     0.022920000000     0.393070000000    -0.438091   
O71      O      0.049400000000     0.023100000000     0.361850000000    -0.437353   
O72      O      0.923450000000     0.022760000000     0.361250000000    -0.438837   
O73      O      0.986660000000     0.522580000000     0.330140000000    -0.438067   
O74      O      0.985740000000     0.522450000000     0.393170000000    -0.438255   
O75      O      0.049370000000     0.522680000000     0.361950000000    -0.437453   
O76      O      0.923430000000     0.522340000000     0.361350000000    -0.43892    
O77      O      0.923670000000     0.449050000000     0.361890000000    -0.437591   
O78      O      0.049610000000     0.449390000000     0.361340000000    -0.438852   
O79      O      0.987260000000     0.449160000000     0.393140000000    -0.43807    
O80      O      0.986420000000     0.449270000000     0.330100000000    -0.437951   
O81      O      0.487320000000     0.949660000000     0.393020000000    -0.438223   
O82      O      0.486420000000     0.949580000000     0.329990000000    -0.438191   
O83      O      0.549640000000     0.949800000000     0.361210000000    -0.438925   
O84      O      0.423700000000     0.949440000000     0.361800000000    -0.437486   
O85      O      0.423450000000     0.022740000000     0.361200000000    -0.438826   
O86      O      0.549390000000     0.023090000000     0.361770000000    -0.437541   
O87      O      0.486650000000     0.022890000000     0.329970000000    -0.438055   
O88      O      0.485790000000     0.022940000000     0.393000000000    -0.438173   
O89      O      0.549620000000     0.449380000000     0.361300000000    -0.438984   
O90      O      0.423670000000     0.449020000000     0.361890000000    -0.437447   
O91      O      0.486390000000     0.449210000000     0.330080000000    -0.438084   
O92      O      0.487300000000     0.449180000000     0.393110000000    -0.438229   
O93      O      0.485770000000     0.522470000000     0.393120000000    -0.438257   
O94      O      0.486620000000     0.522520000000     0.330090000000    -0.438101   
O95      O      0.423430000000     0.522310000000     0.361320000000    -0.439051   
O96      O      0.549370000000     0.522670000000     0.361890000000    -0.437478   
O97      O      0.049290000000     0.022920000000     0.612080000000    -0.43868    
O98      O      0.923340000000     0.023270000000     0.611490000000    -0.437375   
O99      O      0.986060000000     0.023140000000     0.643300000000    -0.438062   
O100     O      0.986960000000     0.023050000000     0.580260000000    -0.437952   
O101     O      0.985440000000     0.949760000000     0.580290000000    -0.438224   
O102     O      0.986300000000     0.949830000000     0.643320000000    -0.438129   
O103     O      0.923090000000     0.949980000000     0.612090000000    -0.438916   
O104     O      0.049030000000     0.949620000000     0.611520000000    -0.437501   
O105     O      0.049460000000     0.522420000000     0.612150000000    -0.438866   
O106     O      0.923520000000     0.522770000000     0.611570000000    -0.437521   
O107     O      0.986240000000     0.522690000000     0.643370000000    -0.438074   
O108     O      0.987140000000     0.522520000000     0.580340000000    -0.438287   
O109     O      0.985610000000     0.449230000000     0.580380000000    -0.43815    
O110     O      0.986470000000     0.449380000000     0.643420000000    -0.438015   
O111     O      0.923270000000     0.449480000000     0.612190000000    -0.438811   
O112     O      0.049210000000     0.449130000000     0.611620000000    -0.437509   
O113     O      0.423090000000     0.949960000000     0.612020000000    -0.438903   
O114     O      0.549040000000     0.949620000000     0.611470000000    -0.437411   
O115     O      0.486270000000     0.949800000000     0.643260000000    -0.438032   
O116     O      0.485470000000     0.949780000000     0.580230000000    -0.438189   
O117     O      0.486980000000     0.023070000000     0.580220000000    -0.438124   
O118     O      0.486030000000     0.023110000000     0.643250000000    -0.437978   
O119     O      0.549280000000     0.022920000000     0.612040000000    -0.438793   
O120     O      0.423330000000     0.023250000000     0.611430000000    -0.43747    
O121     O      0.486200000000     0.522650000000     0.643340000000    -0.438326   
O122     O      0.487160000000     0.522530000000     0.580310000000    -0.438178   
O123     O      0.423510000000     0.522760000000     0.611520000000    -0.437564   
O124     O      0.549460000000     0.522420000000     0.612140000000    -0.438955   
O125     O      0.549210000000     0.449130000000     0.611590000000    -0.437651   
O126     O      0.423270000000     0.449470000000     0.612130000000    -0.438969   
O127     O      0.485640000000     0.449250000000     0.580340000000    -0.438131   
O128     O      0.486440000000     0.449340000000     0.643370000000    -0.43821    


