data_structure

_audit_creation_method RASPA-1.0
_audit_creation_date 2023-6-5
_audit_author_name 'Poobodin Mano'

_cell_length_a    49.7142
_cell_length_b    49.7227
_cell_length_c    29.8386
_cell_angle_alpha 89.9773
_cell_angle_beta  90.0228
_cell_angle_gamma 119.981
_cell_volume      63889.2

_symmetry_cell_setting          triclinic
_symmetry_space_group_name_Hall 'P 1'
_symmetry_space_group_name_H-M  'P 1'
_symmetry_Int_Tables_number     1

_symmetry_equiv_pos_as_xyz 'x,y,z'

loop_
_atom_site_label
_atom_site_type_symbol
_atom_site_fract_x
_atom_site_fract_y
_atom_site_fract_z
_atom_site_charge
C1       C      0.831570000000     0.654250000000     0.548210000000     0.386385   
C2       C      0.801600000000     0.648950000000     0.712650000000     0.386486   
C3       C      0.759740000000     0.624070000000     0.606920000000     0.386441   
C4       C      0.873510000000     0.678910000000     0.653850000000     0.386409   
C5       C      0.135600000000     0.806620000000     0.879530000000     0.38736    
C6       C      0.163980000000     0.833350000000     0.715160000000     0.386425   
C7       C      0.206800000000     0.850700000000     0.819920000000     0.386236   
C8       C      0.092740000000     0.789280000000     0.774890000000     0.386145   
C9       C      0.497970000000     0.989410000000     0.880250000000     0.387294   
C10      C      0.468660000000     0.985720000000     0.044560000000     0.38641    
C11      C      0.426410000000     0.960780000000     0.939330000000     0.386369   
C12      C      0.540270000000     0.014570000000     0.985580000000     0.38573    
C13      C      0.135040000000     0.318770000000     0.378320000000     0.38614    
C14      C      0.165070000000     0.324210000000     0.214010000000     0.387199   
C15      C      0.206930000000     0.348970000000     0.319570000000     0.386144   
C16      C      0.093160000000     0.294140000000     0.272660000000     0.386006   
C17      C      0.831900000000     0.166560000000     0.046130000000     0.386246   
C18      C      0.801950000000     0.141870000000     0.210580000000     0.3865     
C19      C      0.760060000000     0.124580000000     0.104830000000     0.386614   
C20      C      0.873820000000     0.183870000000     0.151780000000     0.386489   
C21      C      0.468650000000     0.475320000000     0.543750000000     0.386552   
C22      C      0.499070000000     0.498730000000     0.379290000000     0.386752   
C23      C      0.540660000000     0.515510000000     0.485120000000     0.387037   
C24      C      0.426940000000     0.458410000000     0.437970000000     0.386823   
C25      C      0.140440000000     0.326630000000     0.713660000000     0.386209   
C26      C      0.167460000000     0.325280000000     0.877990000000     0.3873     
C27      C      0.185060000000     0.300000000000     0.773360000000     0.385806   
C28      C      0.122820000000     0.351780000000     0.818460000000     0.385906   
C29      C      0.321770000000     0.146280000000     0.711230000000     0.386423   
C30      C      0.318590000000     0.171880000000     0.546570000000     0.386589   
C31      C      0.294000000000     0.189920000000     0.651610000000     0.386144   
C32      C      0.346520000000     0.128420000000     0.606210000000     0.386273   
C33      C      0.984230000000     0.474780000000     0.043450000000     0.386537   
C34      C      0.978380000000     0.499050000000     0.878960000000     0.386473   
C35      C      0.953190000000     0.515630000000     0.984620000000     0.386409   
C36      C      0.009410000000     0.458030000000     0.937890000000     0.386311   
C37      C      0.654630000000     0.811520000000     0.378650000000     0.386278   
C38      C      0.649380000000     0.836250000000     0.214190000000     0.38647    
C39      C      0.624960000000     0.853730000000     0.319960000000     0.386046   
C40      C      0.678980000000     0.793980000000     0.273020000000     0.386148   
C41      C      0.827190000000     0.650240000000     0.212740000000     0.386353   
C42      C      0.802810000000     0.655900000000     0.048230000000     0.386381   
C43      C      0.786180000000     0.681340000000     0.153800000000     0.386056   
C44      C      0.843670000000     0.624970000000     0.107150000000     0.386639   
C45      C      0.498310000000     0.989310000000     0.544060000000     0.387249   
C46      C      0.472560000000     0.993080000000     0.379800000000     0.386724   
C47      C      0.455400000000     0.018040000000     0.485150000000     0.385512   
C48      C      0.515340000000     0.964130000000     0.438660000000     0.385911   
C49      C      0.315170000000     0.140650000000     0.046770000000     0.386422   
C50      C      0.322340000000     0.171500000000     0.211100000000     0.386229   
C51      C      0.346730000000     0.212730000000     0.105060000000     0.386908   
C52      C      0.290640000000     0.099140000000     0.152830000000     0.386765   
C53      C      0.497960000000     0.503520000000     0.043820000000     0.386702   
C54      C      0.473060000000     0.474360000000     0.879230000000     0.386559   
C55      C      0.456450000000     0.432030000000     0.984410000000     0.386723   
C56      C      0.514760000000     0.546010000000     0.938670000000     0.386393   
C57      C      0.160820000000     0.838120000000     0.379820000000     0.386266   
C58      C      0.135880000000     0.808080000000     0.215570000000     0.386957   
C59      C      0.118360000000     0.766260000000     0.321260000000     0.386172   
C60      C      0.178500000000     0.879920000000     0.274070000000     0.386114   
C61      C      0.978600000000     0.473980000000     0.378910000000     0.386508   
C62      C      0.983590000000     0.503700000000     0.543400000000     0.386383   
C63      C      0.008200000000     0.545780000000     0.437810000000     0.386039   
C64      C      0.954070000000     0.431990000000     0.484430000000     0.386646   
C65      C      0.805280000000     0.140600000000     0.546150000000     0.386364   
C66      C      0.829690000000     0.170660000000     0.710610000000     0.386433   
C67      C      0.846410000000     0.212590000000     0.604960000000     0.386574   
C68      C      0.788650000000     0.098820000000     0.651830000000     0.386764   
C69      C      0.654590000000     0.837780000000     0.878600000000     0.386513   
C70      C      0.649020000000     0.807740000000     0.714150000000     0.386424   
C71      C      0.624190000000     0.765840000000     0.819800000000     0.386663   
C72      C      0.679470000000     0.879580000000     0.772870000000     0.386906   
C73      C      0.774330000000     0.023860000000     0.705540000000    -0.0682575  
C74      C      0.741780000000     0.005300000000     0.703120000000     0.0237216  
C75      C      0.724840000000     0.017810000000     0.682900000000    -0.067787   
C76      C      0.740000000000     0.048130000000     0.666070000000     0.0288366  
C77      C      0.772490000000     0.066450000000     0.668360000000    -0.114862   
C78      C      0.789480000000     0.053920000000     0.688010000000     0.0289188  
C79      C      0.725740000000     0.973090000000     0.721530000000     0.0243205  
C80      C      0.739850000000     0.954650000000     0.719190000000    -0.0683574  
C81      C      0.725060000000     0.924590000000     0.736710000000     0.0289853  
C82      C      0.695510000000     0.911940000000     0.756290000000    -0.114908   
C83      C      0.681200000000     0.930130000000     0.758480000000     0.0290006  
C84      C      0.696250000000     0.960450000000     0.741660000000    -0.0679175  
C85      C      0.906910000000     0.287700000000     0.550960000000    -0.0681363  
C86      C      0.892960000000     0.306250000000     0.554030000000     0.0239058  
C87      C      0.863840000000     0.293890000000     0.575130000000    -0.0682387  
C88      C      0.848870000000     0.263620000000     0.592080000000     0.0282686  
C89      C      0.862790000000     0.245090000000     0.588740000000    -0.114526   
C90      C      0.892080000000     0.257560000000     0.568290000000     0.0286062  
C91      C      0.908680000000     0.338310000000     0.535260000000     0.0238599  
C92      C      0.941110000000     0.357390000000     0.538290000000    -0.0680689  
C93      C      0.955860000000     0.387540000000     0.521000000000     0.0284801  
C94      C      0.938520000000     0.399490000000     0.500620000000    -0.114464   
C95      C      0.906140000000     0.380420000000     0.497330000000     0.0282262  
C96      C      0.891410000000     0.350150000000     0.514250000000    -0.0681982  
C97      C      0.053720000000     0.685240000000     0.351030000000    -0.067756   
C98      C      0.070370000000     0.672340000000     0.371110000000     0.0239657  
C99      C      0.102870000000     0.690790000000     0.374420000000    -0.0683903  
C100     C      0.118310000000     0.721020000000     0.357600000000     0.0288868  
C101     C      0.101670000000     0.733880000000     0.337760000000    -0.114733   
C102     C      0.069190000000     0.715770000000     0.334880000000     0.0285289  
C103     C      0.054140000000     0.639800000000     0.388330000000     0.0238996  
C104     C      0.024440000000     0.626730000000     0.407880000000    -0.0677162  
C105     C      0.009430000000     0.596200000000     0.423980000000     0.0284707  
C106     C      0.023990000000     0.578230000000     0.421570000000    -0.11442    
C107     C      0.053670000000     0.591270000000     0.402320000000     0.0287351  
C108     C      0.068410000000     0.621510000000     0.385540000000    -0.0682092  
C109     C      0.575650000000     0.621140000000     0.885250000000    -0.0680382  
C110     C      0.561950000000     0.639900000000     0.888670000000     0.0238308  
C111     C      0.532850000000     0.627650000000     0.909760000000    -0.0680816  
C112     C      0.517650000000     0.597310000000     0.926410000000     0.0281746  
C113     C      0.531330000000     0.578580000000     0.922750000000    -0.114414   
C114     C      0.560600000000     0.590920000000     0.902270000000     0.0285288  
C115     C      0.577940000000     0.672050000000     0.870230000000     0.0239128  
C116     C      0.610400000000     0.690860000000     0.873300000000    -0.0681998  
C117     C      0.625410000000     0.721050000000     0.856190000000     0.0286374  
C118     C      0.608330000000     0.733320000000     0.835950000000    -0.114543   
C119     C      0.575910000000     0.714550000000     0.832680000000     0.0282619  
C120     C      0.560910000000     0.684230000000     0.849420000000    -0.0681571  
C121     C      0.275960000000     0.023930000000     0.206690000000    -0.0679765  
C122     C      0.243430000000     0.005550000000     0.204080000000     0.0235911  
C123     C      0.226680000000     0.018060000000     0.183340000000    -0.068137   
C124     C      0.242000000000     0.048290000000     0.166300000000     0.0282939  
C125     C      0.274480000000     0.066670000000     0.169180000000    -0.114541   
C126     C      0.291300000000     0.054050000000     0.189270000000     0.0284906  
C127     C      0.227060000000     0.973530000000     0.222980000000     0.0240838  
C128     C      0.240160000000     0.954230000000     0.219620000000    -0.0681083  
C129     C      0.224680000000     0.924100000000     0.237000000000     0.0284068  
C130     C      0.195580000000     0.912400000000     0.257790000000    -0.114446   
C131     C      0.182520000000     0.931690000000     0.261420000000     0.028003   
C132     C      0.198140000000     0.961930000000     0.244420000000    -0.0682464  
C133     C      0.441950000000     0.356750000000     0.037160000000    -0.0683273  
C134     C      0.409380000000     0.338390000000     0.035160000000     0.023994   
C135     C      0.392460000000     0.351110000000     0.015470000000    -0.067763   
C136     C      0.407680000000     0.381480000000     0.998800000000     0.0287817  
C137     C      0.440190000000     0.399610000000     0.000700000000    -0.114818   
C138     C      0.457150000000     0.386850000000     0.019790000000     0.0289445  
C139     C      0.393260000000     0.306180000000     0.053560000000     0.0240447  
C140     C      0.407120000000     0.287520000000     0.050740000000    -0.0682763  
C141     C      0.392270000000     0.257470000000     0.068320000000     0.0289634  
C142     C      0.362910000000     0.245060000000     0.088420000000    -0.115045   
C143     C      0.348860000000     0.263480000000     0.091100000000     0.0290513  
C144     C      0.363970000000     0.293780000000     0.074230000000    -0.0679767  
C145     C      0.679730000000     0.822270000000     0.500300000000    -0.068134   
C146     C      0.652930000000     0.798940000000     0.521500000000     0.0237865  
C147     C      0.627590000000     0.778310000000     0.494980000000    -0.068612   
C148     C      0.628590000000     0.781620000000     0.448390000000     0.0280315  
C149     C      0.654910000000     0.805780000000     0.427330000000    -0.114376   
C150     C      0.680690000000     0.825690000000     0.453760000000     0.0283206  
C151     C      0.650740000000     0.797680000000     0.571160000000     0.0238515  
C152     C      0.676090000000     0.802220000000     0.597560000000    -0.0686249  
C153     C      0.675060000000     0.804200000000     0.644210000000     0.0280936  
C154     C      0.648730000000     0.801910000000     0.665420000000    -0.114482   
C155     C      0.622940000000     0.796180000000     0.639090000000     0.028439   
C156     C      0.623920000000     0.794030000000     0.592510000000    -0.0682434  
C157     C      0.679860000000     0.851970000000     0.000200000000    -0.0682778  
C158     C      0.653180000000     0.848780000000     0.021470000000     0.0238961  
C159     C      0.627880000000     0.844300000000     0.995000000000    -0.0687521  
C160     C      0.628800000000     0.841940000000     0.948410000000     0.028248   
C161     C      0.654980000000     0.843830000000     0.927280000000    -0.114491   
C162     C      0.680730000000     0.849480000000     0.953650000000     0.028266   
C163     C      0.651070000000     0.847920000000     0.071140000000     0.023772   
C164     C      0.624120000000     0.825040000000     0.092610000000    -0.0682366  
C165     C      0.623170000000     0.821970000000     0.139200000000     0.028296   
C166     C      0.649120000000     0.841780000000     0.165440000000    -0.114465   
C167     C      0.675590000000     0.865530000000     0.144100000000     0.0281299  
C168     C      0.676580000000     0.868500000000     0.097450000000    -0.068544   
C169     C      0.725830000000     0.696390000000     0.207410000000    -0.0679774  
C170     C      0.739860000000     0.728880000000     0.204120000000     0.0238279  
C171     C      0.769000000000     0.745480000000     0.183040000000    -0.0681124  
C172     C      0.783900000000     0.730040000000     0.166310000000     0.0281349  
C173     C      0.769890000000     0.697610000000     0.169850000000    -0.114187   
C174     C      0.740580000000     0.680940000000     0.190300000000     0.0283784  
C175     C      0.724210000000     0.745370000000     0.222640000000     0.0238341  
C176     C      0.691780000000     0.732100000000     0.219620000000    -0.0680629  
C177     C      0.677100000000     0.747630000000     0.236720000000     0.028423   
C178     C      0.694480000000     0.776950000000     0.256890000000    -0.114256   
C179     C      0.726860000000     0.790200000000     0.260130000000     0.0281095  
C180     C      0.741530000000     0.774540000000     0.243410000000    -0.0681168  
C181     C      0.530510000000     0.903950000000     0.385450000000    -0.0681844  
C182     C      0.563050000000     0.918040000000     0.388150000000     0.0238634  
C183     C      0.579810000000     0.947640000000     0.407990000000    -0.067598   
C184     C      0.564430000000     0.962730000000     0.424420000000     0.028341   
C185     C      0.531920000000     0.948330000000     0.422090000000    -0.114441   
C186     C      0.515160000000     0.918750000000     0.402570000000     0.0286863  
C187     C      0.579190000000     0.901740000000     0.370510000000     0.0239116  
C188     C      0.564990000000     0.869200000000     0.373290000000    -0.0681328  
C189     C      0.579660000000     0.853720000000     0.356130000000     0.0287071  
C190     C      0.609200000000     0.870370000000     0.336490000000    -0.114335   
C191     C      0.623700000000     0.902870000000     0.334060000000     0.028549   
C192     C      0.608760000000     0.918380000000     0.350530000000    -0.0676821  
C193     C      0.004790000000     0.532690000000     0.762680000000    -0.0686633  
C194     C      0.979610000000     0.511750000000     0.736160000000     0.0238558  
C195     C      0.953090000000     0.488000000000     0.757360000000    -0.0682727  
C196     C      0.952270000000     0.484510000000     0.803890000000     0.0282535  
C197     C      0.977910000000     0.504750000000     0.830300000000    -0.114359   
C198     C      0.003920000000     0.529290000000     0.809240000000     0.0281117  
C199     C      0.981720000000     0.513180000000     0.686490000000     0.0238546  
C200     C      0.956120000000     0.508060000000     0.660220000000    -0.0685929  
C201     C      0.957160000000     0.506260000000     0.613560000000     0.0281232  
C202     C      0.983770000000     0.509350000000     0.592180000000    -0.114303   
C203     C      0.009800000000     0.515670000000     0.618380000000     0.0281484  
C204     C      0.008790000000     0.517620000000     0.664990000000    -0.0682531  
C205     C      0.005680000000     0.467490000000     0.262780000000    -0.0687499  
C206     C      0.980340000000     0.462720000000     0.236170000000     0.023908   
C207     C      0.953550000000     0.459370000000     0.257240000000    -0.0682202  
C208     C      0.952590000000     0.461990000000     0.303760000000     0.028369   
C209     C      0.978360000000     0.467900000000     0.330270000000    -0.114431   
C210     C      0.004670000000     0.469950000000     0.309340000000     0.0280979  
C211     C      0.982530000000     0.463450000000     0.186520000000     0.0239169  
C212     C      0.009350000000     0.486550000000     0.165070000000    -0.0683246  
C213     C      0.010320000000     0.489510000000     0.118460000000     0.0284417  
C214     C      0.984540000000     0.469360000000     0.092210000000    -0.114469   
C215     C      0.958220000000     0.445390000000     0.113540000000     0.0281233  
C216     C      0.957200000000     0.442540000000     0.160210000000    -0.0686481  
C217     C      0.935940000000     0.579330000000     0.016230000000    -0.067777   
C218     C      0.906520000000     0.562330000000     0.036500000000     0.0239669  
C219     C      0.892530000000     0.529790000000     0.038640000000    -0.0681752  
C220     C      0.907420000000     0.514680000000     0.020870000000     0.0287464  
C221     C      0.936930000000     0.531730000000     0.001240000000    -0.11455    
C222     C      0.951080000000     0.564210000000     0.999160000000     0.0287236  
C223     C      0.890450000000     0.578370000000     0.055320000000     0.0239875  
C224     C      0.907410000000     0.607770000000     0.075640000000    -0.0678753  
C225     C      0.892270000000     0.622880000000     0.092700000000     0.0289465  
C226     C      0.859780000000     0.608720000000     0.090570000000    -0.114853   
C227     C      0.842750000000     0.579220000000     0.070920000000     0.0288497  
C228     C      0.857890000000     0.564360000000     0.053160000000    -0.0682199  
C229     C      0.293420000000     0.112860000000     0.827150000000    -0.0685049  
C230     C      0.318940000000     0.132750000000     0.853990000000     0.0237723  
C231     C      0.346160000000     0.155670000000     0.833130000000    -0.0682032  
C232     C      0.347430000000     0.159410000000     0.786640000000     0.0282548  
C233     C      0.321540000000     0.140230000000     0.759890000000    -0.114404   
C234     C      0.294730000000     0.116490000000     0.780600000000     0.0281866  
C235     C      0.316610000000     0.131130000000     0.903630000000     0.0238226  
C236     C      0.290090000000     0.128170000000     0.925080000000    -0.0682436  
C237     C      0.289140000000     0.130070000000     0.971720000000     0.0283594  
C238     C      0.314650000000     0.134870000000     0.997980000000    -0.114488   
C239     C      0.340610000000     0.136420000000     0.976640000000     0.0281454  
C240     C      0.341620000000     0.134660000000     0.929970000000    -0.0686766  
C241     C      0.297430000000     0.180520000000     0.327540000000    -0.0685263  
C242     C      0.322500000000     0.184120000000     0.353800000000     0.0237679  
C243     C      0.348530000000     0.185980000000     0.332320000000    -0.0681842  
C244     C      0.348930000000     0.182950000000     0.285810000000     0.0281805  
C245     C      0.323330000000     0.178080000000     0.259700000000    -0.114281   
C246     C      0.297860000000     0.177590000000     0.281000000000     0.02807    
C247     C      0.320610000000     0.183540000000     0.403500000000     0.0238369  
C248     C      0.346590000000     0.203360000000     0.429670000000    -0.0685004  
C249     C      0.345590000000     0.200470000000     0.476360000000     0.0280985  
C250     C      0.318630000000     0.177550000000     0.497820000000    -0.114532   
C251     C      0.292300000000     0.158550000000     0.471720000000     0.0285117  
C252     C      0.293270000000     0.161540000000     0.425140000000    -0.0683754  
C253     C      0.436500000000     0.080910000000     0.514710000000    -0.0682045  
C254     C      0.407560000000     0.063850000000     0.536160000000     0.0237048  
C255     C      0.394050000000     0.031410000000     0.539290000000    -0.0678828  
C256     C      0.409270000000     0.016480000000     0.521880000000     0.0278364  
C257     C      0.438460000000     0.033640000000     0.501240000000    -0.114206   
C258     C      0.451820000000     0.066010000000     0.497650000000     0.0278481  
C259     C      0.391690000000     0.079890000000     0.555440000000     0.0238603  
C260     C      0.408950000000     0.108940000000     0.576520000000    -0.0682788  
C261     C      0.394240000000     0.124440000000     0.593560000000     0.0283245  
C262     C      0.361860000000     0.111180000000     0.590330000000    -0.114331   
C263     C      0.344480000000     0.081870000000     0.570120000000     0.0283239  
C264     C      0.359230000000     0.066460000000     0.552720000000    -0.0679988  
C265     C      0.024270000000     0.397340000000     0.884980000000    -0.0680262  
C266     C      0.056810000000     0.411630000000     0.887440000000     0.0238786  
C267     C      0.073510000000     0.440980000000     0.907880000000    -0.0682239  
C268     C      0.058120000000     0.455880000000     0.924700000000     0.0281939  
C269     C      0.025630000000     0.441680000000     0.921880000000    -0.114258   
C270     C      0.008860000000     0.412130000000     0.902160000000     0.0282911  
C271     C      0.073310000000     0.396100000000     0.868590000000     0.0237507  
C272     C      0.060550000000     0.363770000000     0.872400000000    -0.0679877  
C273     C      0.076290000000     0.349300000000     0.855260000000     0.0282294  
C274     C      0.105280000000     0.366830000000     0.834230000000    -0.114387   
C275     C      0.117920000000     0.399080000000     0.830010000000     0.0279693  
C276     C      0.102060000000     0.413510000000     0.846790000000    -0.0682204  
C277     C      0.231820000000     0.209650000000     0.681810000000    -0.0682822  
C278     C      0.249240000000     0.238790000000     0.702590000000     0.0238802  
C279     C      0.281710000000     0.252240000000     0.704780000000    -0.068014   
C280     C      0.296320000000     0.236720000000     0.687300000000     0.0282904  
C281     C      0.278780000000     0.207270000000     0.667500000000    -0.114304   
C282     C      0.246390000000     0.194030000000     0.664680000000     0.0282814  
C283     C      0.233480000000     0.254820000000     0.722270000000     0.0238022  
C284     C      0.246780000000     0.287250000000     0.719000000000    -0.0678852  
C285     C      0.231480000000     0.302070000000     0.736600000000     0.0281391  
C286     C      0.202420000000     0.284770000000     0.757560000000    -0.114229   
C287     C      0.189370000000     0.252450000000     0.761470000000     0.0282594  
C288     C      0.204760000000     0.237690000000     0.744250000000    -0.0683408  
C289     C      0.455610000000     0.487740000000     0.665230000000    -0.0682581  
C290     C      0.458730000000     0.464300000000     0.686810000000     0.0238609  
C291     C      0.462600000000     0.443000000000     0.660640000000    -0.068787   
C292     C      0.464520000000     0.445790000000     0.613980000000     0.0281429  
C293     C      0.462800000000     0.470080000000     0.592510000000    -0.114628   
C294     C      0.457690000000     0.490640000000     0.618610000000     0.0284867  
C295     C      0.460150000000     0.463570000000     0.736450000000     0.0238113  
C296     C      0.483230000000     0.459630000000     0.757570000000    -0.0682604  
C297     C      0.486780000000     0.462120000000     0.804090000000     0.0282899  
C298     C      0.467220000000     0.468470000000     0.830560000000    -0.114487   
C299     C      0.443310000000     0.471130000000     0.809590000000     0.0282329  
C300     C      0.439890000000     0.468810000000     0.763010000000    -0.0685894  
C301     C      0.506830000000     0.532430000000     0.262990000000    -0.0687772  
C302     C      0.510460000000     0.511110000000     0.236500000000     0.0238363  
C303     C      0.512730000000     0.487070000000     0.257690000000    -0.068243   
C304     C      0.510100000000     0.483640000000     0.304240000000     0.0284282  
C305     C      0.505270000000     0.504260000000     0.330620000000    -0.114622   
C306     C      0.504360000000     0.529110000000     0.309540000000     0.028177   
C307     C      0.509620000000     0.512510000000     0.186860000000     0.0239353  
C308     C      0.487080000000     0.517230000000     0.165590000000    -0.0683999  
C309     C      0.484030000000     0.515410000000     0.119000000000     0.0286692  
C310     C      0.503540000000     0.508970000000     0.092590000000    -0.114683   
C311     C      0.526950000000     0.505550000000     0.113750000000     0.0282579  
C312     C      0.529870000000     0.507180000000     0.160420000000    -0.0687773  
C313     C      0.845990000000     0.155810000000     0.924380000000    -0.0682712  
C314     C      0.842480000000     0.179160000000     0.903270000000     0.0238447  
C315     C      0.837840000000     0.199800000000     0.929870000000    -0.0687104  
C316     C      0.835640000000     0.196480000000     0.976460000000     0.0281743  
C317     C      0.837820000000     0.172300000000     0.997440000000    -0.114458   
C318     C      0.843620000000     0.152380000000     0.970930000000     0.0283824  
C319     C      0.841490000000     0.180460000000     0.853620000000     0.0238335  
C320     C      0.862340000000     0.176050000000     0.827150000000    -0.0686641  
C321     C      0.859310000000     0.174150000000     0.780500000000     0.0281359  
C322     C      0.835220000000     0.176410000000     0.759360000000    -0.114453   
C323     C      0.815110000000     0.182010000000     0.785760000000     0.0283585  
C324     C      0.818260000000     0.184070000000     0.832350000000    -0.068216   
C325     C      0.796740000000     0.109630000000     0.327390000000    -0.0686032  
C326     C      0.791730000000     0.130200000000     0.353600000000     0.0238174  
C327     C      0.787660000000     0.153050000000     0.332030000000    -0.068268   
C328     C      0.789860000000     0.156120000000     0.285440000000     0.0283413  
C329     C      0.796080000000     0.136330000000     0.259310000000    -0.114519   
C330     C      0.798800000000     0.112600000000     0.280740000000     0.0281502  
C331     C      0.792940000000     0.129380000000     0.403290000000     0.0237824  
C332     C      0.772080000000     0.133860000000     0.429630000000    -0.0685271  
C333     C      0.775330000000     0.136300000000     0.476230000000     0.0280042  
C334     C      0.799640000000     0.134480000000     0.497470000000    -0.114294   
C335     C      0.819770000000     0.128810000000     0.471220000000     0.0281916  
C336     C      0.816420000000     0.126250000000     0.424680000000    -0.0682041  
C337     C      0.106770000000     0.297590000000     0.598000000000    -0.068402   
C338     C      0.126400000000     0.323110000000     0.570960000000     0.0237478  
C339     C      0.149130000000     0.350520000000     0.591630000000    -0.0681705  
C340     C      0.152970000000     0.351980000000     0.638100000000     0.0282096  
C341     C      0.134100000000     0.326080000000     0.665040000000    -0.114202   
C342     C      0.110500000000     0.299080000000     0.644560000000     0.0280134  
C343     C      0.124860000000     0.320610000000     0.521310000000     0.0237852  
C344     C      0.122120000000     0.294090000000     0.500180000000    -0.0682165  
C345     C      0.124260000000     0.293040000000     0.453600000000     0.0283189  
C346     C      0.129120000000     0.318450000000     0.427050000000    -0.114235   
C347     C      0.130450000000     0.344410000000     0.448030000000     0.0279055  
C348     C      0.128420000000     0.345500000000     0.494670000000    -0.0685168  
C349     C      0.156760000000     0.297480000000     0.094010000000    -0.0678897  
C350     C      0.176820000000     0.325240000000     0.071160000000     0.0240607  
C351     C      0.194550000000     0.352370000000     0.096730000000    -0.0678879  
C352     C      0.191090000000     0.352050000000     0.143290000000     0.0298519  
C353     C      0.170720000000     0.324390000000     0.165520000000    -0.115755   
C354     C      0.154120000000     0.297010000000     0.140630000000     0.0298847  
C355     C      0.177740000000     0.326120000000     0.021000000000     0.0243944  
C356     C      0.170870000000     0.299410000000     0.995850000000    -0.0682375  
C357     C      0.168110000000     0.299260000000     0.949210000000     0.0304234  
C358     C      0.173340000000     0.326110000000     0.926470000000    -0.115914   
C359     C      0.181910000000     0.353280000000     0.950910000000     0.0301429  
C360     C      0.183640000000     0.353200000000     0.997640000000    -0.0680688  
C361     C      0.955470000000     0.202540000000     0.181920000000    -0.0680367  
C362     C      0.967490000000     0.231710000000     0.202720000000     0.0237484  
C363     C      0.948600000000     0.245300000000     0.205460000000    -0.0680133  
C364     C      0.918460000000     0.230050000000     0.188120000000     0.0284819  
C365     C      0.906330000000     0.200690000000     0.167980000000    -0.114402   
C366     C      0.925210000000     0.187150000000     0.164940000000     0.0281409  
C367     C      0.999510000000     0.247820000000     0.221630000000     0.0240662  
C368     C      0.011560000000     0.230880000000     0.243060000000    -0.0684837  
C369     C      0.041810000000     0.245930000000     0.260070000000     0.0281051  
C370     C      0.060650000000     0.278320000000     0.256450000000    -0.114564   
C371     C      0.048490000000     0.295330000000     0.235690000000     0.0284759  
C372     C      0.018350000000     0.280260000000     0.218310000000    -0.0682641  
C373     C      0.288000000000     0.365790000000     0.349810000000    -0.0677115  
C374     C      0.300750000000     0.395310000000     0.369860000000     0.0238611  
C375     C      0.282280000000     0.409380000000     0.372610000000    -0.0682779  
C376     C      0.252100000000     0.394520000000     0.355530000000     0.0287971  
C377     C      0.239340000000     0.364960000000     0.335960000000    -0.114748   
C378     C      0.257550000000     0.350670000000     0.333410000000     0.0285003  
C379     C      0.333100000000     0.411440000000     0.387810000000     0.0240704  
C380     C      0.345760000000     0.394560000000     0.407770000000    -0.0680132  
C381     C      0.376190000000     0.409780000000     0.424210000000     0.0290195  
C382     C      0.394480000000     0.442260000000     0.421780000000    -0.114951   
C383     C      0.381810000000     0.459200000000     0.402380000000     0.0288975  
C384     C      0.351620000000     0.443990000000     0.385250000000    -0.0683255  
C385     C      0.500470000000     0.962620000000     0.661990000000    -0.0679056  
C386     C      0.508670000000     0.989690000000     0.687110000000     0.0243096  
C387     C      0.515500000000     0.017040000000     0.663730000000    -0.0680986  
C388     C      0.513580000000     0.017130000000     0.617050000000     0.029685   
C389     C      0.503860000000     0.989720000000     0.592600000000    -0.115471   
C390     C      0.497530000000     0.962510000000     0.615350000000     0.0298919  
C391     C      0.508260000000     0.989050000000     0.737280000000     0.0243614  
C392     C      0.487670000000     0.961710000000     0.760580000000    -0.0679568  
C393     C      0.485530000000     0.961620000000     0.807250000000     0.0299657  
C394     C      0.503170000000     0.989010000000     0.831730000000    -0.11553    
C395     C      0.524110000000     0.016220000000     0.809060000000     0.0297149  
C396     C      0.527070000000     0.016110000000     0.762450000000    -0.0681014  
C397     C      0.454550000000     0.961250000000     0.166420000000    -0.0681511  
C398     C      0.458220000000     0.988190000000     0.187370000000     0.0240134  
C399     C      0.462900000000     0.013440000000     0.160600000000    -0.0687872  
C400     C      0.465050000000     0.012200000000     0.114000000000     0.0278256  
C401     C      0.462750000000     0.985750000000     0.093210000000    -0.114161   
C402     C      0.456840000000     0.960050000000     0.119900000000     0.0283878  
C403     C      0.459480000000     0.990640000000     0.237010000000     0.0240297  
C404     C      0.438930000000     0.965410000000     0.263810000000    -0.0685634  
C405     C      0.442370000000     0.966640000000     0.310400000000     0.028058   
C406     C      0.466570000000     0.993070000000     0.331160000000    -0.114295   
C407     C      0.486350000000     0.018750000000     0.304460000000     0.028248   
C408     C      0.482800000000     0.017560000000     0.257940000000    -0.0684441  
C409     C      0.615570000000     0.074690000000     0.038910000000    -0.0682105  
C410     C      0.633980000000     0.060560000000     0.036260000000     0.0237949  
C411     C      0.621160000000     0.030980000000     0.016380000000    -0.0674722  
C412     C      0.590720000000     0.015930000000     0.999860000000     0.0279613  
C413     C      0.572630000000     0.030350000000     0.002160000000    -0.114407   
C414     C      0.585440000000     0.059920000000     0.021710000000     0.0286693  
C415     C      0.666380000000     0.076800000000     0.054040000000     0.02405    
C416     C      0.684760000000     0.109340000000     0.051260000000    -0.0683324  
C417     C      0.714880000000     0.124760000000     0.068530000000     0.028942   
C418     C      0.727690000000     0.108050000000     0.088270000000    -0.114814   
C419     C      0.709620000000     0.075550000000     0.090730000000     0.0288183  
C420     C      0.679210000000     0.060110000000     0.074150000000    -0.0678776  
C421     C      0.168630000000     0.866900000000     0.599400000000    -0.0683789  
C422     C      0.174260000000     0.847070000000     0.572410000000     0.0238267  
C423     C      0.178780000000     0.824240000000     0.593140000000    -0.0683064  
C424     C      0.176490000000     0.820510000000     0.639620000000     0.0284129  
C425     C      0.169720000000     0.839580000000     0.666520000000    -0.114368   
C426     C      0.166480000000     0.863270000000     0.645980000000     0.0281098  
C427     C      0.173190000000     0.848510000000     0.522760000000     0.023762   
C428     C      0.149490000000     0.851440000000     0.501670000000    -0.0681407  
C429     C      0.146180000000     0.849220000000     0.455100000000     0.0282513  
C430     C      0.166540000000     0.844090000000     0.428520000000    -0.114243   
C431     C      0.191100000000     0.842570000000     0.449460000000     0.027937   
C432     C      0.194330000000     0.844680000000     0.496080000000    -0.0684873  
C433     C      0.134470000000     0.778720000000     0.098190000000    -0.0678869  
C434     C      0.125460000000     0.796780000000     0.072630000000     0.0240534  
C435     C      0.117970000000     0.816990000000     0.095510000000    -0.067845   
C436     C      0.119990000000     0.819460000000     0.142150000000     0.0297597  
C437     C      0.130430000000     0.802540000000     0.167050000000    -0.115584   
C438     C      0.137460000000     0.782000000000     0.144790000000     0.0298218  
C439     C      0.125620000000     0.796050000000     0.022470000000     0.0243949  
C440     C      0.146690000000     0.789930000000     0.999250000000    -0.0680562  
C441     C      0.148690000000     0.791790000000     0.952540000000     0.030151   
C442     C      0.130400000000     0.800720000000     0.927980000000    -0.115961   
C443     C      0.108900000000     0.806200000000     0.950580000000     0.0304481  
C444     C      0.106100000000     0.803320000000     0.997190000000    -0.06823    
C445     C      0.288890000000     0.870280000000     0.848420000000    -0.0683623  
C446     C      0.300640000000     0.899140000000     0.870020000000     0.0238118  
C447     C      0.281520000000     0.912440000000     0.873500000000    -0.0679821  
C448     C      0.251300000000     0.897070000000     0.856340000000     0.0283544  
C449     C      0.239410000000     0.867940000000     0.835590000000    -0.11467    
C450     C      0.258620000000     0.854810000000     0.831590000000     0.0281839  
C451     C      0.332600000000     0.915120000000     0.889040000000     0.0238296  
C452     C      0.344610000000     0.897980000000     0.909960000000    -0.0683497  
C453     C      0.374890000000     0.912830000000     0.926790000000     0.0281632  
C454     C      0.393830000000     0.945210000000     0.923450000000    -0.114685   
C455     C      0.381690000000     0.962450000000     0.903320000000     0.0284565  
C456     C      0.351480000000     0.947580000000     0.886170000000    -0.0680893  
C457     C      0.787410000000     0.624260000000     0.834530000000    -0.0681799  
C458     C      0.790710000000     0.651080000000     0.855440000000     0.0237441  
C459     C      0.795280000000     0.676270000000     0.828670000000    -0.0685914  
C460     C      0.797610000000     0.675100000000     0.782120000000     0.0282027  
C461     C      0.795610000000     0.648780000000     0.761330000000    -0.114388   
C462     C      0.789890000000     0.623140000000     0.788000000000     0.028132   
C463     C      0.791530000000     0.653470000000     0.905090000000     0.0238648  
C464     C      0.770670000000     0.628250000000     0.931590000000    -0.0686862  
C465     C      0.773500000000     0.629520000000     0.978270000000     0.0281127  
C466     C      0.797410000000     0.655980000000     0.999420000000    -0.114526   
C467     C      0.817540000000     0.681640000000     0.972950000000     0.0284055  
C468     C      0.814590000000     0.680410000000     0.926330000000    -0.0682859  
C469     C      0.836440000000     0.627280000000     0.431240000000    -0.0685928  
C470     C      0.841460000000     0.652920000000     0.405140000000     0.0238191  
C471     C      0.845690000000     0.679850000000     0.426840000000    -0.0681818  
C472     C      0.843620000000     0.680670000000     0.473440000000     0.0284486  
C473     C      0.837380000000     0.654600000000     0.499460000000    -0.114404   
C474     C      0.834520000000     0.628140000000     0.477920000000     0.0280099  
C475     C      0.840060000000     0.650980000000     0.355460000000     0.0237655  
C476     C      0.860890000000     0.676330000000     0.329080000000    -0.0685145  
C477     C      0.857430000000     0.675650000000     0.282530000000     0.0281016  
C478     C      0.832960000000     0.649660000000     0.261360000000    -0.114334   
C479     C      0.812850000000     0.623850000000     0.287610000000     0.0281969  
C480     C      0.816400000000     0.624500000000     0.334110000000    -0.0681521  
C481     C      0.621740000000     0.579060000000     0.516360000000    -0.0679583  
C482     C      0.634110000000     0.562040000000     0.536720000000     0.024011   
C483     C      0.615450000000     0.529510000000     0.539110000000    -0.0682621  
C484     C      0.585420000000     0.514440000000     0.521460000000     0.0289494  
C485     C      0.573020000000     0.531520000000     0.501700000000    -0.115026   
C486     C      0.591450000000     0.563990000000     0.499410000000     0.0290137  
C487     C      0.666290000000     0.578000000000     0.555300000000     0.0239705  
C488     C      0.684650000000     0.563800000000     0.553150000000    -0.0682751  
C489     C      0.714690000000     0.578530000000     0.570770000000     0.0288469  
C490     C      0.727400000000     0.608110000000     0.590260000000    -0.114791   
C491     C      0.709290000000     0.622510000000     0.592280000000     0.0288506  
C492     C      0.678980000000     0.607520000000     0.575360000000    -0.0678801  
C493     C      0.018210000000     0.727630000000     0.720810000000    -0.0681594  
C494     C      0.999050000000     0.740900000000     0.724180000000     0.0241031  
C495     C      0.010710000000     0.769710000000     0.745900000000    -0.0685831  
C496     C      0.040930000000     0.785160000000     0.762930000000     0.0284184  
C497     C      0.060160000000     0.772050000000     0.759070000000    -0.114535   
C498     C      0.048360000000     0.742960000000     0.738220000000     0.0284308  
C499     C      0.967120000000     0.724890000000     0.704980000000     0.0238339  
C500     C      0.954990000000     0.742000000000     0.684290000000    -0.0681564  
C501     C      0.924760000000     0.727080000000     0.667230000000     0.0282929  
C502     C      0.906010000000     0.694650000000     0.670050000000    -0.114534   
C503     C      0.918280000000     0.677460000000     0.689990000000     0.0285435  
C504     C      0.948410000000     0.692400000000     0.707410000000    -0.0681151  
H1       H      0.699840000000     0.004130000000     0.679600000000     0.0473207  
H2       H      0.726290000000     0.057130000000     0.650920000000     0.0339507  
H3       H      0.814530000000     0.067610000000     0.690840000000     0.0336418  
H4       H      0.788200000000     0.015430000000     0.721660000000     0.0466452  
H5       H      0.762180000000     0.963160000000     0.703130000000     0.0467916  
H6       H      0.736530000000     0.911000000000     0.733960000000     0.0336966  
H7       H      0.658470000000     0.921040000000     0.773570000000     0.0339184  
H8       H      0.684830000000     0.974050000000     0.744890000000     0.0474979  
H9       H      0.852640000000     0.307650000000     0.578890000000     0.0468469  
H10      H      0.826390000000     0.254780000000     0.607850000000     0.0341905  
H11      H      0.903350000000     0.243830000000     0.564810000000     0.0349768  
H12      H      0.929070000000     0.296220000000     0.534370000000     0.0474946  
H13      H      0.955150000000     0.349300000000     0.554820000000     0.0474515  
H14      H      0.980820000000     0.401690000000     0.524450000000     0.0350315  
H15      H      0.892120000000     0.388850000000     0.481630000000     0.0341579  
H16      H      0.866480000000     0.335960000000     0.510540000000     0.0468263  
H17      H      0.116510000000     0.682110000000     0.390590000000     0.0467577  
H18      H      0.143340000000     0.734540000000     0.360950000000     0.0338524  
H19      H      0.055750000000     0.725050000000     0.319630000000     0.0338337  
H20      H      0.028750000000     0.671680000000     0.347180000000     0.0473136  
H21      H      0.012870000000     0.640160000000     0.411330000000     0.0473638  
H22      H      0.986580000000     0.586790000000     0.438780000000     0.034031   
H23      H      0.065320000000     0.577860000000     0.399360000000     0.0337796  
H24      H      0.090880000000     0.630340000000     0.369790000000     0.0466823  
H25      H      0.521830000000     0.641580000000     0.913760000000     0.0467739  
H26      H      0.495190000000     0.588560000000     0.942200000000     0.0341887  
H27      H      0.571690000000     0.577040000000     0.898530000000     0.0350402  
H28      H      0.597790000000     0.629560000000     0.868620000000     0.0474304  
H29      H      0.624250000000     0.682500000000     0.889710000000     0.0474589  
H30      H      0.650400000000     0.734970000000     0.859630000000     0.0349297  
H31      H      0.562070000000     0.723240000000     0.817080000000     0.0341841  
H32      H      0.535950000000     0.670260000000     0.845690000000     0.0468254  
H33      H      0.201680000000     0.004420000000     0.179930000000     0.0466885  
H34      H      0.228350000000     0.057240000000     0.150810000000     0.0342078  
H35      H      0.316330000000     0.067660000000     0.192390000000     0.0349444  
H36      H      0.289620000000     0.015300000000     0.222990000000     0.0473784  
H37      H      0.262140000000     0.962150000000     0.202770000000     0.0476172  
H38      H      0.235290000000     0.909780000000     0.233290000000     0.0352429  
H39      H      0.160210000000     0.923450000000     0.277450000000     0.0341904  
H40      H      0.187600000000     0.976290000000     0.248400000000     0.0468795  
H41      H      0.367430000000     0.337570000000     0.012500000000     0.0474505  
H42      H      0.394000000000     0.390650000000     0.984080000000     0.0340631  
H43      H      0.482230000000     0.400390000000     0.022310000000     0.0336924  
H44      H      0.455810000000     0.348150000000     0.052870000000     0.0467125  
H45      H      0.429300000000     0.295870000000     0.034280000000     0.0466764  
H46      H      0.403520000000     0.243700000000     0.065200000000     0.0336226  
H47      H      0.326280000000     0.254580000000     0.106610000000     0.0339037  
H48      H      0.352770000000     0.307550000000     0.077850000000     0.0474721  
H49      H      0.606760000000     0.759880000000     0.510330000000     0.0469805  
H50      H      0.608350000000     0.765790000000     0.429060000000     0.0345584  
H51      H      0.701360000000     0.844500000000     0.438670000000     0.0348892  
H52      H      0.699540000000     0.838740000000     0.519830000000     0.0474883  
H53      H      0.696940000000     0.804750000000     0.582080000000     0.0470036  
H54      H      0.695320000000     0.808530000000     0.663450000000     0.0345144  
H55      H      0.602260000000     0.794230000000     0.654310000000     0.0348437  
H56      H      0.604110000000     0.790810000000     0.573090000000     0.0474986  
H57      H      0.607160000000     0.842120000000     0.010400000000     0.0472145  
H58      H      0.608590000000     0.837720000000     0.929130000000     0.0348563  
H59      H      0.701290000000     0.851120000000     0.938500000000     0.0348832  
H60      H      0.699620000000     0.855130000000     0.019660000000     0.0475745  
H61      H      0.604180000000     0.808620000000     0.073270000000     0.0475305  
H62      H      0.602380000000     0.803460000000     0.154500000000     0.0348783  
H63      H      0.695960000000     0.881280000000     0.163270000000     0.0347837  
H64      H      0.697530000000     0.886610000000     0.081900000000     0.0470847  
H65      H      0.780280000000     0.770430000000     0.179110000000     0.0468178  
H66      H      0.806390000000     0.743580000000     0.150540000000     0.0342426  
H67      H      0.729240000000     0.655950000000     0.193940000000     0.034991   
H68      H      0.703650000000     0.682850000000     0.224000000000     0.0474072  
H69      H      0.677700000000     0.709930000000     0.203260000000     0.0474047  
H70      H      0.652130000000     0.736850000000     0.233310000000     0.0349683  
H71      H      0.740940000000     0.812690000000     0.275680000000     0.0341932  
H72      H      0.766460000000     0.785240000000     0.247110000000     0.0468269  
H73      H      0.604810000000     0.959080000000     0.411400000000     0.0473129  
H74      H      0.577960000000     0.985490000000     0.439420000000     0.0339384  
H75      H      0.490110000000     0.907220000000     0.399630000000     0.0338692  
H76      H      0.516760000000     0.881580000000     0.369480000000     0.0466922  
H77      H      0.542630000000     0.855540000000     0.389350000000     0.0466321  
H78      H      0.568060000000     0.828670000000     0.359130000000     0.0337559  
H79      H      0.646450000000     0.916320000000     0.318970000000     0.0338605  
H80      H      0.620280000000     0.943370000000     0.347040000000     0.0473513  
H81      H      0.933430000000     0.471290000000     0.737850000000     0.047539   
H82      H      0.931840000000     0.465390000000     0.818980000000     0.0348738  
H83      H      0.024040000000     0.545390000000     0.828550000000     0.0349312  
H84      H      0.025390000000     0.551440000000     0.747340000000     0.0471158  
H85      H      0.935070000000     0.504920000000     0.675820000000     0.0470737  
H86      H      0.936720000000     0.501470000000     0.594410000000     0.034767   
H87      H      0.030700000000     0.518240000000     0.603030000000     0.0348846  
H88      H      0.028820000000     0.521300000000     0.684290000000     0.0474775  
H89      H      0.933750000000     0.455990000000     0.237640000000     0.0475169  
H90      H      0.931920000000     0.460210000000     0.318760000000     0.0348533  
H91      H      0.024900000000     0.474390000000     0.328730000000     0.034613   
H92      H      0.026500000000     0.469810000000     0.247520000000     0.0470667  
H93      H      0.029150000000     0.503210000000     0.184410000000     0.047536   
H94      H      0.030990000000     0.508180000000     0.103150000000     0.0348595  
H95      H      0.937980000000     0.429400000000     0.094350000000     0.03453    
H96      H      0.936360000000     0.424290000000     0.175780000000     0.0470284  
H97      H      0.870240000000     0.515870000000     0.054770000000     0.046644   
H98      H      0.896070000000     0.489630000000     0.023530000000     0.0337079  
H99      H      0.973770000000     0.577960000000     0.984020000000     0.0340854  
H100     H      0.947250000000     0.604330000000     0.013110000000     0.047475   
H101     H      0.932420000000     0.619090000000     0.078790000000     0.0474484  
H102     H      0.906010000000     0.645560000000     0.107860000000     0.0339669  
H103     H      0.817700000000     0.567870000000     0.068230000000     0.0336434  
H104     H      0.844000000000     0.542080000000     0.037000000000     0.0466438  
H105     H      0.366120000000     0.171580000000     0.852900000000     0.0473854  
H106     H      0.368470000000     0.177890000000     0.771820000000     0.0346775  
H107     H      0.274390000000     0.101230000000     0.761020000000     0.0348816  
H108     H      0.272250000000     0.094760000000     0.842230000000     0.0470927  
H109     H      0.270550000000     0.125710000000     0.905720000000     0.0475348  
H110     H      0.268750000000     0.128720000000     0.987020000000     0.0348192  
H111     H      0.360640000000     0.140000000000     0.995830000000     0.0346079  
H112     H      0.362210000000     0.136620000000     0.914420000000     0.0470402  
H113     H      0.368090000000     0.188430000000     0.351620000000     0.0474807  
H114     H      0.368970000000     0.183530000000     0.270530000000     0.0349573  
H115     H      0.277810000000     0.174050000000     0.261910000000     0.034847   
H116     H      0.277210000000     0.179410000000     0.343080000000     0.0470323  
H117     H      0.367880000000     0.220770000000     0.413980000000     0.0470634  
H118     H      0.366270000000     0.215550000000     0.495450000000     0.0346224  
H119     H      0.271120000000     0.140710000000     0.487120000000     0.0347299  
H120     H      0.272950000000     0.145700000000     0.405960000000     0.0474962  
H121     H      0.372000000000     0.017540000000     0.556060000000     0.0474334  
H122     H      0.398400000000     0.991520000000     0.525490000000     0.0354826  
H123     H      0.474190000000     0.079930000000     0.481690000000     0.0342594  
H124     H      0.447330000000     0.105840000000     0.510850000000     0.0467746  
H125     H      0.433900000000     0.119710000000     0.580090000000     0.046785   
H126     H      0.408320000000     0.146900000000     0.609190000000     0.0343003  
H127     H      0.319500000000     0.071080000000     0.566790000000     0.0349096  
H128     H      0.345200000000     0.044320000000     0.536260000000     0.0474547  
H129     H      0.098520000000     0.452440000000     0.911180000000     0.0468028  
H130     H      0.071730000000     0.478560000000     0.939930000000     0.0343034  
H131     H      0.983820000000     0.400620000000     0.899130000000     0.0351044  
H132     H      0.010660000000     0.374960000000     0.868960000000     0.0474627  
H133     H      0.038670000000     0.349650000000     0.889470000000     0.0474927  
H134     H      0.065990000000     0.324430000000     0.859380000000     0.0351493  
H135     H      0.140120000000     0.413260000000     0.813760000000     0.0342667  
H136     H      0.112320000000     0.438350000000     0.842430000000     0.0467901  
H137     H      0.295850000000     0.274470000000     0.720960000000     0.0474252  
H138     H      0.321310000000     0.247520000000     0.690270000000     0.0349326  
H139     H      0.232190000000     0.171480000000     0.649350000000     0.0342681  
H140     H      0.206850000000     0.198860000000     0.678620000000     0.046899   
H141     H      0.268690000000     0.301160000000     0.701910000000     0.0474434  
H142     H      0.242090000000     0.326980000000     0.732770000000     0.0348369  
H143     H      0.167130000000     0.238440000000     0.777730000000     0.0342061  
H144     H      0.194120000000     0.212800000000     0.748310000000     0.0468588  
H145     H      0.464700000000     0.424480000000     0.676300000000     0.0470297  
H146     H      0.468350000000     0.429470000000     0.594920000000     0.0345401  
H147     H      0.456190000000     0.509570000000     0.603190000000     0.0349942  
H148     H      0.452890000000     0.504690000000     0.684500000000     0.0476539  
H149     H      0.499410000000     0.455880000000     0.738000000000     0.0474769  
H150     H      0.505390000000     0.459870000000     0.819130000000     0.0348339  
H151     H      0.427770000000     0.475930000000     0.828970000000     0.0349222  
H152     H      0.421670000000     0.471600000000     0.747710000000     0.0471678  
H153     H      0.515240000000     0.470100000000     0.238150000000     0.0476     
H154     H      0.510980000000     0.464290000000     0.319360000000     0.0349756  
H155     H      0.500800000000     0.545520000000     0.328830000000     0.0346132  
H156     H      0.505380000000     0.551410000000     0.247630000000     0.0470011  
H157     H      0.470930000000     0.521090000000     0.185050000000     0.0475704  
H158     H      0.465790000000     0.518230000000     0.103810000000     0.0347343  
H159     H      0.542410000000     0.500610000000     0.094420000000     0.0344531  
H160     H      0.547670000000     0.503790000000     0.175870000000     0.0470993  
H161     H      0.835410000000     0.218230000000     0.914570000000     0.0470281  
H162     H      0.831270000000     0.212320000000     0.995850000000     0.034581   
H163     H      0.845490000000     0.133550000000     0.985970000000     0.0348195  
H164     H      0.849280000000     0.139350000000     0.904790000000     0.0475508  
H165     H      0.880690000000     0.173540000000     0.842570000000     0.0470761  
H166     H      0.875280000000     0.169920000000     0.761200000000     0.0345823  
H167     H      0.796350000000     0.183930000000     0.770590000000     0.034809   
H168     H      0.801650000000     0.187210000000     0.851830000000     0.0474739  
H169     H      0.784070000000     0.169460000000     0.351280000000     0.0475296  
H170     H      0.787570000000     0.174610000000     0.270070000000     0.0348926  
H171     H      0.803500000000     0.096870000000     0.261650000000     0.0347009  
H172     H      0.799600000000     0.091550000000     0.343030000000     0.0470458  
H173     H      0.753530000000     0.136000000000     0.414140000000     0.0470963  
H174     H      0.759330000000     0.140530000000     0.495410000000     0.0348745  
H175     H      0.838700000000     0.127220000000     0.486460000000     0.0349229  
H176     H      0.833060000000     0.123090000000     0.405310000000     0.0475005  
H177     H      0.164870000000     0.370490000000     0.571750000000     0.0473601  
H178     H      0.171320000000     0.373180000000     0.652730000000     0.034819   
H179     H      0.095490000000     0.278740000000     0.664310000000     0.0347658  
H180     H      0.088810000000     0.276270000000     0.583080000000     0.0470098  
H181     H      0.119670000000     0.274640000000     0.519750000000     0.0475318  
H182     H      0.123040000000     0.272630000000     0.438570000000     0.0349599  
H183     H      0.134040000000     0.364350000000     0.428620000000     0.0345787  
H184     H      0.130220000000     0.366100000000     0.509950000000     0.0469153  
H185     H      0.210920000000     0.374060000000     0.080930000000     0.0466079  
H186     H      0.204350000000     0.373430000000     0.161930000000     0.0312788  
H187     H      0.137940000000     0.275430000000     0.157010000000     0.0322548  
H188     H      0.142060000000     0.276180000000     0.076040000000     0.0468886  
H189     H      0.167120000000     0.278340000000     0.012050000000     0.0466431  
H190     H      0.161720000000     0.278080000000     0.930890000000     0.0304771  
H191     H      0.185690000000     0.374200000000     0.934050000000     0.0317623  
H192     H      0.188370000000     0.374120000000     0.015260000000     0.0470186  
H193     H      0.956860000000     0.267500000000     0.221810000000     0.0474806  
H194     H      0.904450000000     0.241040000000     0.191350000000     0.035035   
H195     H      0.916640000000     0.164640000000     0.149420000000     0.0342287  
H196     H      0.969510000000     0.191600000000     0.178420000000     0.0467095  
H197     H      0.997560000000     0.205950000000     0.247020000000     0.0468769  
H198     H      0.050400000000     0.232140000000     0.276080000000     0.0341594  
H199     H      0.062470000000     0.320300000000     0.232000000000     0.0351493  
H200     H      0.010070000000     0.294040000000     0.201490000000     0.047548   
H201     H      0.290890000000     0.431730000000     0.388630000000     0.0466906  
H202     H      0.238510000000     0.405980000000     0.358560000000     0.0338422  
H203     H      0.248390000000     0.327940000000     0.318320000000     0.0339442  
H204     H      0.301610000000     0.354400000000     0.346290000000     0.0472975  
H205     H      0.332120000000     0.369580000000     0.411190000000     0.0474614  
H206     H      0.385280000000     0.396100000000     0.439190000000     0.0340121  
H207     H      0.395470000000     0.484240000000     0.399480000000     0.0335874  
H208     H      0.343060000000     0.457810000000     0.369320000000     0.0467058  
H209     H      0.521200000000     0.038250000000     0.681310000000     0.0469349  
H210     H      0.518210000000     0.038340000000     0.600230000000     0.0321414  
H211     H      0.490240000000     0.941140000000     0.597060000000     0.0310534  
H212     H      0.495900000000     0.941280000000     0.678190000000     0.0466098  
H213     H      0.472200000000     0.940510000000     0.742950000000     0.0469538  
H214     H      0.468910000000     0.940410000000     0.824020000000     0.0320988  
H215     H      0.538160000000     0.037580000000     0.827390000000     0.0310444  
H216     H      0.543900000000     0.037450000000     0.746310000000     0.0465872  
H217     H      0.465450000000     0.034380000000     0.175750000000     0.0469897  
H218     H      0.469490000000     0.032370000000     0.094460000000     0.0345244  
H219     H      0.454860000000     0.939270000000     0.105020000000     0.0350019  
H220     H      0.451230000000     0.941510000000     0.186120000000     0.0475044  
H221     H      0.420500000000     0.944480000000     0.248670000000     0.0470161  
H222     H      0.426650000000     0.946480000000     0.329950000000     0.0345374  
H223     H      0.505180000000     0.039510000000     0.319320000000     0.0349413  
H224     H      0.499210000000     0.037280000000     0.238240000000     0.0475137  
H225     H      0.634710000000     0.019520000000     0.013020000000     0.0472009  
H226     H      0.581490000000     0.993170000000     0.984850000000     0.0341276  
H227     H      0.571930000000     0.071460000000     0.024620000000     0.0338913  
H228     H      0.624190000000     0.097050000000     0.054900000000     0.0466898  
H229     H      0.676120000000     0.123030000000     0.035120000000     0.0466916  
H230     H      0.728380000000     0.149800000000     0.065520000000     0.0336699  
H231     H      0.718860000000     0.062050000000     0.105900000000     0.033775   
H232     H      0.665690000000     0.035120000000     0.077640000000     0.0473333  
H233     H      0.182810000000     0.808360000000     0.573300000000     0.0474327  
H234     H      0.179210000000     0.802080000000     0.654310000000     0.0347783  
H235     H      0.161340000000     0.878440000000     0.665690000000     0.0347935  
H236     H      0.165390000000     0.884940000000     0.584430000000     0.0470454  
H237     H      0.132640000000     0.854110000000     0.521270000000     0.0475446  
H238     H      0.127060000000     0.850590000000     0.440110000000     0.0350096  
H239     H      0.207300000000     0.838770000000     0.430020000000     0.0346386  
H240     H      0.213070000000     0.842740000000     0.511330000000     0.0469734  
H241     H      0.111660000000     0.831930000000     0.077560000000     0.0469132  
H242     H      0.114790000000     0.835770000000     0.158560000000     0.0323349  
H243     H      0.145320000000     0.768500000000     0.163420000000     0.0313108  
H244     H      0.139610000000     0.762230000000     0.082370000000     0.0466079  
H245     H      0.162650000000     0.784900000000     0.016980000000     0.0470086  
H246     H      0.165730000000     0.787810000000     0.935800000000     0.0317532  
H247     H      0.094340000000     0.812870000000     0.932180000000     0.0305194  
H248     H      0.088870000000     0.807260000000     0.013280000000     0.046648   
H249     H      0.289630000000     0.934450000000     0.890380000000     0.047568   
H250     H      0.237050000000     0.907750000000     0.860250000000     0.0351376  
H251     H      0.250270000000     0.832490000000     0.815540000000     0.0343276  
H252     H      0.303130000000     0.859620000000     0.844280000000     0.0468028  
H253     H      0.330550000000     0.873030000000     0.913590000000     0.0467937  
H254     H      0.383440000000     0.898860000000     0.942350000000     0.0342566  
H255     H      0.395720000000     0.987430000000     0.899930000000     0.0352768  
H256     H      0.343170000000     0.961490000000     0.869810000000     0.0476182  
H257     H      0.797540000000     0.697110000000     0.843800000000     0.047033   
H258     H      0.801880000000     0.695240000000     0.762620000000     0.0348639  
H259     H      0.788180000000     0.602480000000     0.773110000000     0.0348119  
H260     H      0.784170000000     0.604570000000     0.854270000000     0.0474376  
H261     H      0.752450000000     0.607310000000     0.916180000000     0.0470264  
H262     H      0.757530000000     0.609360000000     0.997620000000     0.0345414  
H263     H      0.836180000000     0.702400000000     0.988120000000     0.0347598  
H264     H      0.831210000000     0.700140000000     0.906830000000     0.0475635  
H265     H      0.849290000000     0.699900000000     0.407680000000     0.0475691  
H266     H      0.846030000000     0.701460000000     0.488910000000     0.0349091  
H267     H      0.829780000000     0.607680000000     0.496940000000     0.0344341  
H268     H      0.833440000000     0.606330000000     0.415490000000     0.0470055  
H269     H      0.879570000000     0.696920000000     0.344540000000     0.047102   
H270     H      0.873430000000     0.695880000000     0.263340000000     0.0348591  
H271     H      0.793800000000     0.603420000000     0.272420000000     0.0349413  
H272     H      0.799780000000     0.604710000000     0.353510000000     0.0474429  
H273     H      0.623780000000     0.515570000000     0.555330000000     0.0466484  
H274     H      0.571640000000     0.489400000000     0.524280000000     0.0335775  
H275     H      0.582560000000     0.577770000000     0.484180000000     0.0338484  
H276     H      0.635510000000     0.604050000000     0.513060000000     0.0473713  
H277     H      0.676100000000     0.541450000000     0.537150000000     0.0466669  
H278     H      0.728220000000     0.566990000000     0.568150000000     0.033721   
H279     H      0.718420000000     0.645260000000     0.607300000000     0.0338261  
H280     H      0.665440000000     0.619000000000     0.578450000000     0.0473735  
H281     H      0.996450000000     0.780350000000     0.749980000000     0.0469369  
H282     H      0.049220000000     0.807450000000     0.779070000000     0.0340881  
H283     H      0.062640000000     0.732320000000     0.734390000000     0.034829   
H284     H      0.010190000000     0.705680000000     0.703830000000     0.0474696  
H285     H      0.968910000000     0.766990000000     0.681000000000     0.0468574  
H286     H      0.916100000000     0.741010000000     0.651840000000     0.0341927  
H287     H      0.904390000000     0.652450000000     0.693020000000     0.035031   
H288     H      0.956770000000     0.678490000000     0.723620000000     0.0474783  
Ni1      Ni     0.815370000000     0.627050000000     0.633840000000     0.994724   
Ni2      Ni     0.817830000000     0.676050000000     0.627050000000     0.994027   
Ni3      Ni     0.151890000000     0.797260000000     0.793130000000     0.995619   
Ni4      Ni     0.147640000000     0.842720000000     0.801710000000     0.993614   
Ni5      Ni     0.481730000000     0.962950000000     0.966130000000     0.993708   
Ni6      Ni     0.485010000000     0.012300000000     0.958570000000     0.995174   
Ni7      Ni     0.148780000000     0.296980000000     0.299450000000     0.993571   
Ni8      Ni     0.151340000000     0.346060000000     0.292730000000     0.995131   
Ni9      Ni     0.818260000000     0.130980000000     0.125010000000     0.99155    
Ni10     Ni     0.815570000000     0.177400000000     0.131690000000     0.997188   
Ni11     Ni     0.484460000000     0.463370000000     0.458580000000     0.994527   
Ni12     Ni     0.483170000000     0.510590000000     0.464420000000     0.995255   
Ni13     Ni     0.176560000000     0.350870000000     0.791540000000     0.993618   
Ni14     Ni     0.131360000000     0.300980000000     0.800240000000     0.994878   
Ni15     Ni     0.345040000000     0.181960000000     0.632710000000     0.993232   
Ni16     Ni     0.295410000000     0.136310000000     0.625110000000     0.995286   
Ni17     Ni     0.005640000000     0.510340000000     0.964520000000     0.993785   
Ni18     Ni     0.956990000000     0.463410000000     0.957850000000     0.99518    
Ni19     Ni     0.676610000000     0.847060000000     0.299750000000     0.990942   
Ni20     Ni     0.627400000000     0.800770000000     0.293120000000     0.997296   
Ni21     Ni     0.838430000000     0.677460000000     0.127130000000     0.992987   
Ni22     Ni     0.791480000000     0.628840000000     0.133930000000     0.995669   
Ni23     Ni     0.508480000000     0.015800000000     0.458200000000     0.992884   
Ni24     Ni     0.462400000000     0.966470000000     0.465770000000     0.995516   
Ni25     Ni     0.294360000000     0.155170000000     0.125980000000     0.993145   
Ni26     Ni     0.343010000000     0.156760000000     0.131970000000     0.995841   
Ni27     Ni     0.462220000000     0.490100000000     0.965180000000     0.993488   
Ni28     Ni     0.508880000000     0.487890000000     0.957830000000     0.99646    
Ni29     Ni     0.125300000000     0.824730000000     0.300960000000     0.992041   
Ni30     Ni     0.171410000000     0.821430000000     0.294300000000     0.996069   
Ni31     Ni     0.956500000000     0.487460000000     0.457740000000     0.991333   
Ni32     Ni     0.005700000000     0.490320000000     0.464530000000     0.997528   
Ni33     Ni     0.794060000000     0.156600000000     0.631720000000     0.992939   
Ni34     Ni     0.840940000000     0.154750000000     0.625010000000     0.996447   
Ni35     Ni     0.627340000000     0.821630000000     0.793040000000     0.992663   
Ni36     Ni     0.676250000000     0.823840000000     0.799730000000     0.996841   
O1       O      0.827180000000     0.630900000000     0.571950000000    -0.437759   
O2       O      0.803650000000     0.626470000000     0.695250000000    -0.43781    
O3       O      0.772800000000     0.608070000000     0.615820000000    -0.43934    
O4       O      0.858160000000     0.649220000000     0.651310000000    -0.43863    
O5       O      0.860690000000     0.695040000000     0.644100000000    -0.437722   
O6       O      0.774750000000     0.653740000000     0.610460000000    -0.436485   
O7       O      0.806530000000     0.672490000000     0.688990000000    -0.43916    
O8       O      0.829020000000     0.676440000000     0.565560000000    -0.438963   
O9       O      0.141420000000     0.788860000000     0.855350000000    -0.437813   
O10      O      0.162340000000     0.808780000000     0.731670000000    -0.439325   
O11      O      0.194710000000     0.821980000000     0.809440000000    -0.439375   
O12      O      0.108710000000     0.775530000000     0.777140000000    -0.437382   
O13      O      0.104990000000     0.818160000000     0.784490000000    -0.439075   
O14      O      0.190650000000     0.864290000000     0.818590000000    -0.437122   
O15      O      0.158960000000     0.851540000000     0.739730000000    -0.437259   
O16      O      0.136400000000     0.830780000000     0.862940000000    -0.437599   
O17      O      0.492250000000     0.965650000000     0.903940000000    -0.438399   
O18      O      0.471150000000     0.963350000000     0.027730000000    -0.438649   
O19      O      0.438800000000     0.944390000000     0.949830000000    -0.438276   
O20      O      0.525000000000     0.984910000000     0.981960000000    -0.435762   
O21      O      0.527450000000     0.030820000000     0.976840000000    -0.439792   
O22      O      0.442220000000     0.990490000000     0.940880000000    -0.438163   
O23      O      0.473050000000     0.008870000000     0.020330000000    -0.438068   
O24      O      0.496940000000     0.012510000000     0.897370000000    -0.437179   
O25      O      0.137960000000     0.296750000000     0.361120000000    -0.438444   
O26      O      0.159540000000     0.300340000000     0.237280000000    -0.438456   
O27      O      0.191980000000     0.319330000000     0.315510000000    -0.436315   
O28      O      0.105850000000     0.277990000000     0.282940000000    -0.438127   
O29      O      0.108620000000     0.323860000000     0.274690000000    -0.438069   
O30      O      0.193780000000     0.364970000000     0.311250000000    -0.439525   
O31      O      0.163590000000     0.346960000000     0.231530000000    -0.437072   
O32      O      0.139130000000     0.341960000000     0.354450000000    -0.437934   
O33      O      0.829380000000     0.141790000000     0.063400000000    -0.437672   
O34      O      0.807040000000     0.123300000000     0.187070000000    -0.437993   
O35      O      0.775180000000     0.110040000000     0.108510000000    -0.43661    
O36      O      0.861120000000     0.154970000000     0.141970000000    -0.437699   
O37      O      0.858360000000     0.198120000000     0.149290000000    -0.438558   
O38      O      0.773020000000     0.153650000000     0.113570000000    -0.439429   
O39      O      0.803820000000     0.166270000000     0.193000000000    -0.438991   
O40      O      0.827450000000     0.185440000000     0.069930000000    -0.438929   
O41      O      0.472810000000     0.456060000000     0.520450000000    -0.439097   
O42      O      0.496110000000     0.473890000000     0.397000000000    -0.437718   
O43      O      0.527180000000     0.486420000000     0.476290000000    -0.438768   
O44      O      0.441550000000     0.443360000000     0.441580000000    -0.437635   
O45      O      0.440440000000     0.487520000000     0.446670000000    -0.438598   
O46      O      0.526080000000     0.530580000000     0.481510000000    -0.43766    
O47      O      0.494890000000     0.517950000000     0.402620000000    -0.439777   
O48      O      0.471510000000     0.500090000000     0.525950000000    -0.438208   
O49      O      0.164930000000     0.349680000000     0.730100000000    -0.43905    
O50      O      0.185080000000     0.348900000000     0.853760000000    -0.437402   
O51      O      0.198610000000     0.329700000000     0.775520000000    -0.436488   
O52      O      0.151520000000     0.368640000000     0.807910000000    -0.438545   
O53      O      0.109480000000     0.322080000000     0.817130000000    -0.437688   
O54      O      0.156200000000     0.283210000000     0.783020000000    -0.439275   
O55      O      0.143410000000     0.301810000000     0.861450000000    -0.437868   
O56      O      0.122420000000     0.303360000000     0.738270000000    -0.437385   
O57      O      0.344650000000     0.170670000000     0.694230000000    -0.438296   
O58      O      0.342130000000     0.190140000000     0.570550000000    -0.437244   
O59      O      0.323690000000     0.203640000000     0.649220000000    -0.437748   
O60      O      0.363140000000     0.157300000000     0.615890000000    -0.438615   
O61      O      0.316820000000     0.114680000000     0.608450000000    -0.437476   
O62      O      0.277340000000     0.161010000000     0.642080000000    -0.438281   
O63      O      0.295710000000     0.147590000000     0.563730000000    -0.439689   
O64      O      0.298320000000     0.128030000000     0.687120000000    -0.438435   
O65      O      0.006210000000     0.499680000000     0.026090000000    -0.438466   
O66      O      0.001880000000     0.517890000000     0.902510000000    -0.438622   
O67      O      0.982850000000     0.530600000000     0.981000000000    -0.43688    
O68      O      0.025180000000     0.486980000000     0.947590000000    -0.438043   
O69      O      0.979700000000     0.443320000000     0.940390000000    -0.438257   
O70      O      0.937490000000     0.486540000000     0.975850000000    -0.438999   
O71      O      0.956150000000     0.474390000000     0.896470000000    -0.43831    
O72      O      0.961030000000     0.455600000000     0.019700000000    -0.438351   
O73      O      0.676920000000     0.836240000000     0.361340000000    -0.437768   
O74      O      0.673070000000     0.854750000000     0.237700000000    -0.438093   
O75      O      0.654620000000     0.868170000000     0.316270000000    -0.436041   
O76      O      0.695310000000     0.822880000000     0.282780000000    -0.437061   
O77      O      0.649280000000     0.779870000000     0.275540000000    -0.4387     
O78      O      0.608760000000     0.824670000000     0.311210000000    -0.439356   
O79      O      0.626800000000     0.811900000000     0.231780000000    -0.438818   
O80      O      0.631240000000     0.792720000000     0.354900000000    -0.438988   
O81      O      0.846000000000     0.673750000000     0.189180000000    -0.438194   
O82      O      0.827730000000     0.677920000000     0.065520000000    -0.438013   
O83      O      0.815120000000     0.697070000000     0.143990000000    -0.437781   
O84      O      0.858660000000     0.654630000000     0.110740000000    -0.436939   
O85      O      0.814580000000     0.609300000000     0.115920000000    -0.439006   
O86      O      0.771450000000     0.651620000000     0.151400000000    -0.438013   
O87      O      0.783610000000     0.632800000000     0.072100000000    -0.438624   
O88      O      0.802510000000     0.628020000000     0.195260000000    -0.438582   
O89      O      0.516340000000     0.013070000000     0.520380000000    -0.438489   
O90      O      0.497440000000     0.015420000000     0.396610000000    -0.438876   
O91      O      0.484160000000     0.034400000000     0.474570000000    -0.437974   
O92      O      0.529750000000     0.993800000000     0.442310000000    -0.435492   
O93      O      0.486290000000     0.947920000000     0.447410000000    -0.439707   
O94      O      0.441470000000     0.988320000000     0.483570000000    -0.437708   
O95      O      0.453820000000     0.969940000000     0.404030000000    -0.438082   
O96      O      0.474170000000     0.966220000000     0.526940000000    -0.437048   
O97      O      0.293350000000     0.143720000000     0.064400000000    -0.438137   
O98      O      0.298640000000     0.166750000000     0.187940000000    -0.438175   
O99      O      0.317100000000     0.198130000000     0.109140000000    -0.437204   
O100     O      0.274860000000     0.112340000000     0.143260000000    -0.438132   
O101     O      0.320330000000     0.114050000000     0.149910000000    -0.438392   
O102     O      0.362440000000     0.199300000000     0.113560000000    -0.43917    
O103     O      0.344380000000     0.168890000000     0.193270000000    -0.438517   
O104     O      0.338480000000     0.144630000000     0.070240000000    -0.438606   
O105     O      0.473120000000     0.500950000000     0.026770000000    -0.438663   
O106     O      0.454420000000     0.479130000000     0.903090000000    -0.438497   
O107     O      0.441680000000     0.446960000000     0.981240000000    -0.436728   
O108     O      0.485850000000     0.533050000000     0.948600000000    -0.437848   
O109     O      0.529240000000     0.530760000000     0.940760000000    -0.438612   
O110     O      0.485500000000     0.445230000000     0.975460000000    -0.439556   
O111     O      0.497650000000     0.476420000000     0.896450000000    -0.438731   
O112     O      0.516950000000     0.499400000000     0.019750000000    -0.438568   
O113     O      0.136010000000     0.835530000000     0.362610000000    -0.43833    
O114     O      0.117760000000     0.813940000000     0.238800000000    -0.438135   
O115     O      0.103960000000     0.781510000000     0.317130000000    -0.435576   
O116     O      0.149700000000     0.867600000000     0.284350000000    -0.437837   
O117     O      0.192410000000     0.864120000000     0.276160000000    -0.438346   
O118     O      0.147460000000     0.779070000000     0.312910000000    -0.439954   
O119     O      0.159950000000     0.809200000000     0.233120000000    -0.437084   
O120     O      0.179690000000     0.833670000000     0.355980000000    -0.43815    
O121     O      0.956300000000     0.476440000000     0.396130000000    -0.437835   
O122     O      0.959940000000     0.498590000000     0.519820000000    -0.437954   
O123     O      0.978530000000     0.530580000000     0.441370000000    -0.435997   
O124     O      0.937770000000     0.444590000000     0.474600000000    -0.437665   
O125     O      0.983770000000     0.447530000000     0.482010000000    -0.438875   
O126     O      0.024380000000     0.532880000000     0.446540000000    -0.439374   
O127     O      0.006210000000     0.501970000000     0.525860000000    -0.439008   
O128     O      0.001950000000     0.478520000000     0.402740000000    -0.439164   
O129     O      0.786480000000     0.145330000000     0.569680000000    -0.438217   
O130     O      0.804770000000     0.167790000000     0.693310000000    -0.437971   
O131     O      0.817480000000     0.199490000000     0.614770000000    -0.437935   
O132     O      0.773720000000     0.113560000000     0.648190000000    -0.436977   
O133     O      0.817740000000     0.112160000000     0.643080000000    -0.43943    
O134     O      0.861070000000     0.197530000000     0.607440000000    -0.438427   
O135     O      0.848820000000     0.166620000000     0.686800000000    -0.438933   
O136     O      0.829900000000     0.142920000000     0.563680000000    -0.438635   
O137     O      0.631010000000     0.832910000000     0.855050000000    -0.438417   
O138     O      0.626900000000     0.810450000000     0.731470000000    -0.438177   
O139     O      0.608160000000     0.778750000000     0.810030000000    -0.437694   
O140     O      0.649810000000     0.864690000000     0.776500000000    -0.436746   
O141     O      0.695380000000     0.866410000000     0.781660000000    -0.439621   
O142     O      0.653890000000     0.781080000000     0.817280000000    -0.439027   
O143     O      0.672300000000     0.811980000000     0.737920000000    -0.43869    
O144     O      0.676980000000     0.835630000000     0.861080000000    -0.438587   


