data_structure

_audit_creation_method RASPA-1.0
_audit_creation_date 2023-5-22
_audit_author_name 'Poobodin Mano'

_cell_length_a    30.4061
_cell_length_b    30.4054
_cell_length_c    45.4834
_cell_angle_alpha 89.9995
_cell_angle_beta  90.001
_cell_angle_gamma 120
_cell_volume      36416.2

_symmetry_cell_setting          triclinic
_symmetry_space_group_name_Hall 'P 1'
_symmetry_space_group_name_H-M  'P 1'
_symmetry_Int_Tables_number     1

_symmetry_equiv_pos_as_xyz 'x,y,z'

loop_
_atom_site_label
_atom_site_type_symbol
_atom_site_fract_x
_atom_site_fract_y
_atom_site_fract_z
_atom_site_charge
C1       C      0.979530000000     0.986650000000     0.264350000000     0.385499   
C2       C      0.979550000000     0.986490000000     0.376360000000     0.385957   
C3       C      0.063270000000     0.070400000000     0.320400000000     0.38643    
C4       C      0.895810000000     0.902750000000     0.320360000000     0.386468   
C5       C      0.894250000000     0.404380000000     0.321840000000     0.385898   
C6       C      0.064940000000     0.568720000000     0.321810000000     0.385982   
C7       C      0.979630000000     0.486540000000     0.377720000000     0.386976   
C8       C      0.979540000000     0.486550000000     0.265830000000     0.387445   
C9       C      0.561760000000     0.071900000000     0.320210000000     0.385913   
C10      C      0.397410000000     0.901220000000     0.320140000000     0.386163   
C11      C      0.479620000000     0.986620000000     0.264320000000     0.387367   
C12      C      0.479530000000     0.986500000000     0.376140000000     0.387478   
C13      C      0.395710000000     0.402850000000     0.321510000000     0.386276   
C14      C      0.563360000000     0.570310000000     0.321530000000     0.386229   
C15      C      0.479560000000     0.486570000000     0.265550000000     0.386474   
C16      C      0.479510000000     0.486570000000     0.377550000000     0.38649    
C17      C      0.063850000000     0.987800000000     0.987020000000     0.385535   
C18      C      0.894980000000     0.985160000000     0.986950000000     0.385467   
C19      C      0.979410000000     0.986380000000     0.931010000000     0.385884   
C20      C      0.979420000000     0.986580000000     0.043020000000     0.385551   
C21      C      0.064090000000     0.488080000000     0.987820000000     0.385716   
C22      C      0.894720000000     0.484410000000     0.987800000000     0.385641   
C23      C      0.979430000000     0.486330000000     0.043800000000     0.387237   
C24      C      0.979380000000     0.486160000000     0.931910000000     0.386851   
C25      C      0.562290000000     0.984690000000     0.987460000000     0.385351   
C26      C      0.396580000000     0.988350000000     0.987530000000     0.385309   
C27      C      0.479360000000     0.986480000000     0.931550000000     0.38778    
C28      C      0.479510000000     0.986560000000     0.043370000000     0.38725    
C29      C      0.396290000000     0.487580000000     0.988270000000     0.385803   
C30      C      0.562530000000     0.484940000000     0.988240000000     0.385958   
C31      C      0.479350000000     0.486200000000     0.932210000000     0.386193   
C32      C      0.479470000000     0.486320000000     0.044220000000     0.386263   
C33      C      0.979410000000     0.986030000000     0.709690000000     0.38575    
C34      C      0.979480000000     0.986070000000     0.597690000000     0.385699   
C35      C      0.979350000000     0.069780000000     0.653710000000     0.386325   
C36      C      0.979540000000     0.902310000000     0.653710000000     0.386263   
C37      C      0.979350000000     0.402220000000     0.654760000000     0.386394   
C38      C      0.979530000000     0.569870000000     0.654810000000     0.386463   
C39      C      0.979400000000     0.485990000000     0.710780000000     0.387043   
C40      C      0.979490000000     0.486110000000     0.598850000000     0.387185   
C41      C      0.479100000000     0.069940000000     0.653850000000     0.385891   
C42      C      0.479290000000     0.902510000000     0.653910000000     0.385834   
C43      C      0.479180000000     0.986270000000     0.709730000000     0.38759    
C44      C      0.479210000000     0.986190000000     0.597980000000     0.387396   
C45      C      0.479140000000     0.402420000000     0.654820000000     0.386354   
C46      C      0.479310000000     0.570070000000     0.654900000000     0.38644    
C47      C      0.479250000000     0.486320000000     0.598880000000     0.386299   
C48      C      0.479200000000     0.486170000000     0.710890000000     0.386219   
C49      C      0.523420000000     0.710150000000     0.647010000000    -0.068257   
C50      C      0.479370000000     0.711820000000     0.654530000000     0.0239103  
C51      C      0.435330000000     0.666220000000     0.662220000000    -0.0682177  
C52      C      0.435230000000     0.620210000000     0.662170000000     0.0286651  
C53      C      0.479350000000     0.618750000000     0.654820000000    -0.114897   
C54      C      0.523490000000     0.664230000000     0.647340000000     0.0286652  
C55      C      0.479370000000     0.760830000000     0.654350000000     0.0237152  
C56      C      0.522650000000     0.806180000000     0.663210000000    -0.0681667  
C57      C      0.522740000000     0.852180000000     0.662860000000     0.0282419  
C58      C      0.479340000000     0.853870000000     0.654020000000    -0.114813   
C59      C      0.435960000000     0.808640000000     0.645330000000     0.0282196  
C60      C      0.436080000000     0.762730000000     0.645310000000    -0.0681322  
C61      C      0.523100000000     0.306230000000     0.662100000000    -0.0682181  
C62      C      0.479050000000     0.260650000000     0.654400000000     0.0239034  
C63      C      0.435020000000     0.262340000000     0.646870000000    -0.0681622  
C64      C      0.434950000000     0.308260000000     0.647210000000     0.0285966  
C65      C      0.479090000000     0.353730000000     0.654710000000    -0.114766   
C66      C      0.523200000000     0.352250000000     0.662070000000     0.0286105  
C67      C      0.479040000000     0.211630000000     0.654220000000     0.0237706  
C68      C      0.522330000000     0.209720000000     0.645190000000    -0.0682108  
C69      C      0.522430000000     0.163810000000     0.645240000000     0.0283126  
C70      C      0.479050000000     0.118580000000     0.653930000000    -0.114778   
C71      C      0.435650000000     0.120290000000     0.662750000000     0.0282749  
C72      C      0.435750000000     0.166290000000     0.663070000000    -0.0681343  
C73      C      0.935890000000     0.762340000000     0.645870000000    -0.0682493  
C74      C      0.979620000000     0.760650000000     0.654170000000     0.0237854  
C75      C      0.023340000000     0.806220000000     0.662270000000    -0.0681937  
C76      C      0.023420000000     0.852220000000     0.661900000000     0.0288339  
C77      C      0.979590000000     0.853690000000     0.653820000000    -0.115106   
C78      C      0.935770000000     0.808250000000     0.645900000000     0.0286688  
C79      C      0.979620000000     0.711620000000     0.654370000000     0.0237783  
C80      C      0.935880000000     0.666190000000     0.662660000000    -0.06827    
C81      C      0.935770000000     0.620170000000     0.662620000000     0.0287378  
C82      C      0.979590000000     0.618540000000     0.654710000000    -0.115181   
C83      C      0.023430000000     0.663860000000     0.646650000000     0.0288833  
C84      C      0.023350000000     0.709770000000     0.646280000000    -0.0682007  
C85      C      0.023010000000     0.209750000000     0.645850000000    -0.0681231  
C86      C      0.979270000000     0.211450000000     0.654130000000     0.0237639  
C87      C      0.935540000000     0.165870000000     0.662220000000    -0.0682407  
C88      C      0.935450000000     0.119870000000     0.661850000000     0.0287179  
C89      C      0.979300000000     0.118400000000     0.653810000000    -0.11503    
C90      C      0.023120000000     0.163850000000     0.645900000000     0.0288296  
C91      C      0.979270000000     0.260470000000     0.654320000000     0.0238076  
C92      C      0.023000000000     0.305900000000     0.662620000000    -0.068198   
C93      C      0.023110000000     0.351920000000     0.662580000000     0.0288688  
C94      C      0.979300000000     0.353550000000     0.654650000000    -0.115146   
C95      C      0.935470000000     0.308240000000     0.646570000000     0.0287691  
C96      C      0.935550000000     0.262330000000     0.646200000000    -0.0683097  
C97      C      0.519070000000     0.486160000000     0.789750000000    -0.0689383  
C98      C      0.479200000000     0.486100000000     0.805320000000     0.0241005  
C99      C      0.439320000000     0.486040000000     0.789760000000    -0.068936   
C100     C      0.438980000000     0.485400000000     0.759020000000     0.0293399  
C101     C      0.479190000000     0.486130000000     0.743360000000    -0.114949   
C102     C      0.519400000000     0.486820000000     0.759010000000     0.029312   
C103     C      0.479220000000     0.486110000000     0.837780000000     0.024106   
C104     C      0.478520000000     0.445930000000     0.853350000000    -0.0689367  
C105     C      0.477920000000     0.445630000000     0.884090000000     0.0293289  
C106     C      0.479300000000     0.486160000000     0.899740000000    -0.114991   
C107     C      0.480650000000     0.526670000000     0.884080000000     0.029345   
C108     C      0.479960000000     0.526320000000     0.853340000000    -0.0689582  
C109     C      0.511710000000     0.030780000000     0.788290000000    -0.0677345  
C110     C      0.479220000000     0.986370000000     0.804200000000     0.0240308  
C111     C      0.446690000000     0.941930000000     0.788320000000    -0.0680946  
C112     C      0.446110000000     0.942180000000     0.757610000000     0.0305994  
C113     C      0.479180000000     0.986310000000     0.742050000000    -0.116958   
C114     C      0.512260000000     0.030460000000     0.757580000000     0.0310401  
C115     C      0.479250000000     0.986400000000     0.837080000000     0.0241022  
C116     C      0.523610000000     0.019130000000     0.852960000000    -0.067785   
C117     C      0.523360000000     0.019720000000     0.883670000000     0.0311155  
C118     C      0.479320000000     0.986460000000     0.899230000000    -0.117105   
C119     C      0.435240000000     0.953160000000     0.883700000000     0.0306978  
C120     C      0.434920000000     0.953700000000     0.852990000000    -0.0681879  
C121     C      0.797610000000     0.526720000000     0.979020000000    -0.0685007  
C122     C      0.752420000000     0.483240000000     0.987830000000     0.0238671  
C123     C      0.754530000000     0.439810000000     0.996350000000    -0.0695394  
C124     C      0.800590000000     0.439930000000     0.996070000000     0.0267114  
C125     C      0.845700000000     0.483670000000     0.987630000000    -0.114519   
C126     C      0.843680000000     0.527040000000     0.979120000000     0.028279   
C127     C      0.703470000000     0.483390000000     0.988180000000     0.0240006  
C128     C      0.702210000000     0.527490000000     0.996120000000    -0.0698224  
C129     C      0.656530000000     0.528020000000     0.995980000000     0.0269842  
C130     C      0.610850000000     0.484280000000     0.988310000000    -0.114491   
C131     C      0.611840000000     0.439990000000     0.980710000000     0.0283635  
C132     C      0.657650000000     0.439630000000     0.980460000000    -0.06831    
C133     C      0.161200000000     0.445740000000     0.979120000000    -0.068484   
C134     C      0.206400000000     0.489260000000     0.987890000000     0.0238661  
C135     C      0.204290000000     0.532710000000     0.996360000000    -0.0695278  
C136     C      0.158230000000     0.532590000000     0.996070000000     0.0266782  
C137     C      0.113110000000     0.488820000000     0.987660000000    -0.114461   
C138     C      0.115120000000     0.445410000000     0.979210000000     0.0282349  
C139     C      0.255350000000     0.489110000000     0.988240000000     0.0239993  
C140     C      0.256640000000     0.445040000000     0.996220000000    -0.0697911  
C141     C      0.302310000000     0.444510000000     0.996070000000     0.0269898  
C142     C      0.347970000000     0.488240000000     0.988360000000    -0.114478   
C143     C      0.346960000000     0.532500000000     0.980720000000     0.0283752  
C144     C      0.301150000000     0.532850000000     0.980470000000    -0.0683237  
C145     C      0.979820000000     0.526130000000     0.853080000000    -0.0692516  
C146     C      0.979350000000     0.486030000000     0.837560000000     0.0241828  
C147     C      0.978890000000     0.445970000000     0.853120000000    -0.0692526  
C148     C      0.978260000000     0.445680000000     0.883850000000     0.0296092  
C149     C      0.979370000000     0.486110000000     0.899460000000    -0.115594   
C150     C      0.980470000000     0.526500000000     0.883810000000     0.0295931  
C151     C      0.979350000000     0.485990000000     0.805130000000     0.0240907  
C152     C      0.939410000000     0.485800000000     0.789580000000    -0.0693295  
C153     C      0.939100000000     0.485150000000     0.758850000000     0.029748   
C154     C      0.979370000000     0.485970000000     0.743220000000    -0.115875   
C155     C      0.019630000000     0.486790000000     0.758870000000     0.0298179  
C156     C      0.019290000000     0.486160000000     0.789600000000    -0.0691179  
C157     C      0.657860000000     0.940060000000     0.978890000000    -0.0681515  
C158     C      0.703420000000     0.983510000000     0.987350000000     0.0235343  
C159     C      0.701750000000     0.027020000000     0.996130000000    -0.0695022  
C160     C      0.655990000000     0.027350000000     0.996050000000     0.0272234  
C161     C      0.610570000000     0.983950000000     0.987610000000    -0.114844   
C162     C      0.611920000000     0.940180000000     0.979200000000     0.0281889  
C163     C      0.752500000000     0.983640000000     0.986990000000     0.0235756  
C164     C      0.754580000000     0.939900000000     0.994760000000    -0.0696936  
C165     C      0.800730000000     0.940250000000     0.994510000000     0.0269082  
C166     C      0.845990000000     0.984500000000     0.986860000000    -0.114851   
C167     C      0.844060000000     0.028230000000     0.979150000000     0.0287869  
C168     C      0.797860000000     0.027710000000     0.979010000000    -0.0680402  
C169     C      0.300980000000     0.032930000000     0.978960000000    -0.0677273  
C170     C      0.255450000000     0.989500000000     0.987480000000     0.0235189  
C171     C      0.257150000000     0.946020000000     0.996300000000    -0.069868   
C172     C      0.302910000000     0.945710000000     0.996210000000     0.0268809  
C173     C      0.348300000000     0.989080000000     0.987700000000    -0.114881   
C174     C      0.346930000000     0.032820000000     0.979260000000     0.0285896  
C175     C      0.206350000000     0.989350000000     0.987120000000     0.0235934  
C176     C      0.204270000000     0.033110000000     0.994830000000    -0.0693269  
C177     C      0.158110000000     0.032750000000     0.994560000000     0.0272774  
C178     C      0.112840000000     0.988460000000     0.986950000000    -0.114806   
C179     C      0.114780000000     0.944710000000     0.979310000000     0.0283986  
C180     C      0.160990000000     0.945250000000     0.979180000000    -0.0683812  
C181     C      0.979740000000     0.946550000000     0.852180000000    -0.0689537  
C182     C      0.979390000000     0.986190000000     0.836580000000     0.0236813  
C183     C      0.979060000000     0.025900000000     0.852110000000    -0.068508   
C184     C      0.979710000000     0.026290000000     0.882860000000     0.0297017  
C185     C      0.979410000000     0.986310000000     0.898540000000    -0.115443   
C186     C      0.979100000000     0.946280000000     0.882920000000     0.0294035  
C187     C      0.979390000000     0.986130000000     0.804120000000     0.0240333  
C188     C      0.019390000000     0.986430000000     0.788570000000    -0.068845   
C189     C      0.019720000000     0.987030000000     0.757830000000     0.0293603  
C190     C      0.979390000000     0.986050000000     0.742160000000    -0.115047   
C191     C      0.939060000000     0.985100000000     0.757800000000     0.029299   
C192     C      0.939390000000     0.985790000000     0.788540000000    -0.0690036  
C193     C      0.479240000000     0.526260000000     0.456420000000    -0.0689687  
C194     C      0.479370000000     0.486480000000     0.471980000000     0.0241676  
C195     C      0.479560000000     0.446740000000     0.456410000000    -0.0689634  
C196     C      0.480250000000     0.447090000000     0.425670000000     0.0294217  
C197     C      0.479470000000     0.486550000000     0.410020000000    -0.115082   
C198     C      0.478640000000     0.525980000000     0.425680000000     0.0294169  
C199     C      0.479330000000     0.486450000000     0.504440000000     0.0240531  
C200     C      0.519250000000     0.526180000000     0.520030000000    -0.068868   
C201     C      0.519560000000     0.525820000000     0.550770000000     0.0292736  
C202     C      0.479270000000     0.486370000000     0.566400000000    -0.114849   
C203     C      0.439010000000     0.446960000000     0.550730000000     0.0292701  
C204     C      0.439380000000     0.446680000000     0.519990000000    -0.0688464  
C205     C      0.439510000000     0.446750000000     0.123100000000    -0.0687674  
C206     C      0.479530000000     0.486450000000     0.138650000000     0.0241424  
C207     C      0.519530000000     0.526090000000     0.123070000000    -0.0687653  
C208     C      0.519210000000     0.526390000000     0.092330000000     0.029345   
C209     C      0.479490000000     0.486360000000     0.076690000000    -0.114645   
C210     C      0.439800000000     0.446370000000     0.092360000000     0.0293663  
C211     C      0.479540000000     0.486490000000     0.171110000000     0.0242024  
C212     C      0.439870000000     0.486830000000     0.186670000000    -0.0688824  
C213     C      0.440190000000     0.487510000000     0.217410000000     0.0293514  
C214     C      0.479560000000     0.486560000000     0.233070000000    -0.114879   
C215     C      0.518920000000     0.485570000000     0.217420000000     0.0293667  
C216     C      0.519230000000     0.486180000000     0.186680000000    -0.0689402  
C217     C      0.434950000000     0.974360000000     0.454700000000    -0.0681588  
C218     C      0.479360000000     0.986310000000     0.470620000000     0.0244487  
C219     C      0.523830000000     0.998330000000     0.454750000000    -0.0685179  
C220     C      0.523610000000     0.997540000000     0.424040000000     0.0300784  
C221     C      0.479470000000     0.986440000000     0.408470000000    -0.116316   
C222     C      0.435290000000     0.975270000000     0.423990000000     0.030509   
C223     C      0.479310000000     0.986260000000     0.503500000000     0.0244223  
C224     C      0.446530000000     0.997820000000     0.519380000000    -0.068473   
C225     C      0.445930000000     0.996940000000     0.550100000000     0.0299879  
C226     C      0.479230000000     0.986190000000     0.565650000000    -0.116254   
C227     C      0.512550000000     0.975470000000     0.550110000000     0.0304313  
C228     C      0.512030000000     0.974650000000     0.519400000000    -0.068144   
C229     C      0.439730000000     0.986570000000     0.185570000000    -0.0694533  
C230     C      0.479620000000     0.986640000000     0.170040000000     0.0245502  
C231     C      0.519510000000     0.986710000000     0.185570000000    -0.0694484  
C232     C      0.519220000000     0.986080000000     0.216280000000     0.0301131  
C233     C      0.479630000000     0.986640000000     0.231910000000    -0.116176   
C234     C      0.440040000000     0.987200000000     0.216290000000     0.0301014  
C235     C      0.479600000000     0.986610000000     0.137640000000     0.0239338  
C236     C      0.440010000000     0.946470000000     0.122130000000    -0.0691886  
C237     C      0.440300000000     0.946130000000     0.091420000000     0.0301646  
C238     C      0.479540000000     0.986580000000     0.075780000000    -0.116244   
C239     C      0.518820000000     0.027040000000     0.091390000000     0.0305433  
C240     C      0.519160000000     0.026740000000     0.122100000000    -0.0687688  
C241     C      0.979510000000     0.446520000000     0.456500000000    -0.0692069  
C242     C      0.979580000000     0.486380000000     0.472070000000     0.0243348  
C243     C      0.979670000000     0.526300000000     0.456550000000    -0.0692321  
C244     C      0.979060000000     0.526050000000     0.425820000000     0.0297786  
C245     C      0.979620000000     0.486490000000     0.410160000000    -0.115651   
C246     C      0.980170000000     0.446880000000     0.425770000000     0.0297758  
C247     C      0.979550000000     0.486320000000     0.504500000000     0.0240834  
C248     C      0.939530000000     0.446600000000     0.520020000000    -0.0691113  
C249     C      0.939190000000     0.446840000000     0.550740000000     0.0297332  
C250     C      0.979510000000     0.486180000000     0.566400000000    -0.115683   
C251     C      0.019870000000     0.525590000000     0.550790000000     0.0298155  
C252     C      0.019560000000     0.525960000000     0.520070000000    -0.0689549  
C253     C      0.753590000000     0.309920000000     0.313460000000    -0.0679244  
C254     C      0.751130000000     0.264020000000     0.321460000000     0.0238259  
C255     C      0.796140000000     0.265170000000     0.330090000000    -0.0683559  
C256     C      0.842420000000     0.310690000000     0.330160000000     0.0284214  
C257     C      0.844870000000     0.356430000000     0.322020000000    -0.114571   
C258     C      0.799900000000     0.355660000000     0.313900000000     0.0282592  
C259     C      0.702120000000     0.215010000000     0.320640000000     0.0237778  
C260     C      0.656220000000     0.212550000000     0.328640000000    -0.0678681  
C261     C      0.610480000000     0.166240000000     0.328190000000     0.0282333  
C262     C      0.609710000000     0.121270000000     0.320050000000    -0.114525   
C263     C      0.655450000000     0.123720000000     0.311910000000     0.0283954  
C264     C      0.700970000000     0.170000000000     0.312000000000    -0.0682854  
C265     C      0.163040000000     0.707940000000     0.330010000000    -0.0682998  
C266     C      0.208040000000     0.709100000000     0.321370000000     0.0237694  
C267     C      0.205580000000     0.663190000000     0.313370000000    -0.0678685  
C268     C      0.159270000000     0.617450000000     0.313830000000     0.0282601  
C269     C      0.114310000000     0.616680000000     0.321970000000    -0.114594   
C270     C      0.116760000000     0.662420000000     0.330100000000     0.0284107  
C271     C      0.257050000000     0.758100000000     0.320540000000     0.0238051  
C272     C      0.258200000000     0.803110000000     0.311900000000    -0.0683672  
C273     C      0.303720000000     0.849390000000     0.311820000000     0.0284463  
C274     C      0.349450000000     0.851840000000     0.319960000000    -0.11464    
C275     C      0.348690000000     0.806870000000     0.328100000000     0.0282309  
C276     C      0.302950000000     0.760560000000     0.328540000000    -0.067905   
C277     C      0.991370000000     0.530890000000     0.187170000000    -0.0681436  
C278     C      0.979460000000     0.486470000000     0.171270000000     0.024411   
C279     C      0.967570000000     0.442070000000     0.187200000000    -0.0679492  
C280     C      0.968440000000     0.442380000000     0.217920000000     0.0303325  
C281     C      0.979500000000     0.486520000000     0.233470000000    -0.116034   
C282     C      0.990540000000     0.530630000000     0.217900000000     0.0303811  
C283     C      0.979460000000     0.486440000000     0.138360000000     0.0243653  
C284     C      0.968100000000     0.519330000000     0.122430000000    -0.0678585  
C285     C      0.968950000000     0.519850000000     0.091700000000     0.0302912  
C286     C      0.979450000000     0.486370000000     0.076150000000    -0.115813   
C287     C      0.989960000000     0.452930000000     0.091740000000     0.0303766  
C288     C      0.990820000000     0.453520000000     0.122460000000    -0.068057   
C289     C      0.979310000000     0.026060000000     0.455260000000    -0.0686718  
C290     C      0.979530000000     0.986300000000     0.470790000000     0.0237164  
C291     C      0.979760000000     0.946600000000     0.455190000000    -0.0690762  
C292     C      0.980420000000     0.946980000000     0.424450000000     0.0292938  
C293     C      0.979550000000     0.986430000000     0.408830000000    -0.115524   
C294     C      0.978670000000     0.025810000000     0.424520000000     0.02969    
C295     C      0.979520000000     0.986230000000     0.503250000000     0.0234338  
C296     C      0.019440000000     0.025960000000     0.518840000000    -0.0683838  
C297     C      0.019760000000     0.025590000000     0.549580000000     0.029679   
C298     C      0.979500000000     0.986110000000     0.565210000000    -0.11537    
C299     C      0.939250000000     0.946690000000     0.549540000000     0.029188   
C300     C      0.939590000000     0.946440000000     0.518800000000    -0.0689116  
C301     C      0.799730000000     0.762840000000     0.328910000000    -0.0683499  
C302     C      0.754140000000     0.760990000000     0.320830000000     0.0239107  
C303     C      0.755830000000     0.806430000000     0.312550000000    -0.068318   
C304     C      0.801740000000     0.852440000000     0.312570000000     0.0287115  
C305     C      0.847190000000     0.854070000000     0.320470000000    -0.115051   
C306     C      0.845730000000     0.808760000000     0.328530000000     0.0286924  
C307     C      0.705120000000     0.711970000000     0.321050000000     0.0238284  
C308     C      0.703250000000     0.666390000000     0.312950000000    -0.0681412  
C309     C      0.657340000000     0.620390000000     0.313340000000     0.0286343  
C310     C      0.612040000000     0.618930000000     0.321410000000    -0.114776   
C311     C      0.613680000000     0.664380000000     0.329330000000     0.0286248  
C312     C      0.659700000000     0.710280000000     0.329350000000    -0.0681496  
C313     C      0.255810000000     0.306760000000     0.312970000000    -0.0681626  
C314     C      0.253960000000     0.261180000000     0.321060000000     0.0238519  
C315     C      0.299390000000     0.262870000000     0.329350000000    -0.0681699  
C316     C      0.345400000000     0.308770000000     0.329320000000     0.0286561  
C317     C      0.347030000000     0.354220000000     0.321410000000    -0.114745   
C318     C      0.301720000000     0.352760000000     0.313350000000     0.0286263  
C319     C      0.204930000000     0.212150000000     0.320860000000     0.0239515  
C320     C      0.159360000000     0.210300000000     0.328960000000    -0.0683006  
C321     C      0.113360000000     0.164380000000     0.328590000000     0.0287121  
C322     C      0.111890000000     0.119080000000     0.320510000000    -0.114922   
C323     C      0.157340000000     0.120710000000     0.312590000000     0.0286835  
C324     C      0.203240000000     0.166730000000     0.312560000000    -0.0682774  
C325     C      0.018920000000     0.026880000000     0.121880000000    -0.0682475  
C326     C      0.979450000000     0.986710000000     0.137460000000     0.0233944  
C327     C      0.939960000000     0.946500000000     0.121910000000    -0.0687751  
C328     C      0.940270000000     0.946130000000     0.091170000000     0.029183   
C329     C      0.979420000000     0.986630000000     0.075500000000    -0.115044   
C330     C      0.018590000000     0.027170000000     0.091140000000     0.0296652  
C331     C      0.979480000000     0.986720000000     0.169920000000     0.0240765  
C332     C      0.019290000000     0.986630000000     0.185460000000    -0.06897    
C333     C      0.018990000000     0.985960000000     0.216200000000     0.0292652  
C334     C      0.979510000000     0.986690000000     0.231870000000    -0.114973   
C335     C      0.940030000000     0.987440000000     0.216230000000     0.0291868  
C336     C      0.939700000000     0.986810000000     0.185490000000    -0.0691064  
H1       H      0.400960000000     0.666040000000     0.668670000000     0.0469005  
H2       H      0.400700000000     0.585870000000     0.668270000000     0.0339924  
H3       H      0.558010000000     0.664320000000     0.641330000000     0.0339793  
H4       H      0.557790000000     0.744230000000     0.640450000000     0.0468983  
H5       H      0.556380000000     0.806160000000     0.670820000000     0.0470473  
H6       H      0.556650000000     0.886320000000     0.669920000000     0.0344758  
H7       H      0.402030000000     0.808730000000     0.638170000000     0.03453    
H8       H      0.402360000000     0.728860000000     0.637810000000     0.0470715  
H9       H      0.400640000000     0.228260000000     0.640290000000     0.0469031  
H10      H      0.400440000000     0.308190000000     0.641200000000     0.0340302  
H11      H      0.557740000000     0.386580000000     0.668180000000     0.0340086  
H12      H      0.557460000000     0.306410000000     0.668550000000     0.046923   
H13      H      0.556050000000     0.243580000000     0.637700000000     0.047122   
H14      H      0.556370000000     0.163710000000     0.638090000000     0.0345419  
H15      H      0.401730000000     0.086150000000     0.669800000000     0.0346206  
H16      H      0.402020000000     0.166320000000     0.670680000000     0.0471036  
H17      H      0.057440000000     0.806410000000     0.669320000000     0.0469472  
H18      H      0.057680000000     0.886550000000     0.668360000000     0.033832   
H19      H      0.901500000000     0.808180000000     0.639330000000     0.0338459  
H20      H      0.901790000000     0.728300000000     0.638950000000     0.0469319  
H21      H      0.901780000000     0.666140000000     0.669570000000     0.0469373  
H22      H      0.901490000000     0.585950000000     0.669180000000     0.0338425  
H23      H      0.057690000000     0.663790000000     0.640200000000     0.0338741  
H24      H      0.057450000000     0.743690000000     0.639240000000     0.0469561  
H25      H      0.901430000000     0.165680000000     0.669250000000     0.0469913  
H26      H      0.901190000000     0.085540000000     0.668300000000     0.0339828  
H27      H      0.057400000000     0.163910000000     0.639350000000     0.03387    
H28      H      0.057110000000     0.243800000000     0.638940000000     0.0469483  
H29      H      0.057080000000     0.305950000000     0.669550000000     0.0469794  
H30      H      0.057380000000     0.386130000000     0.669160000000     0.0338377  
H31      H      0.901210000000     0.308310000000     0.640110000000     0.0338909  
H32      H      0.901460000000     0.228410000000     0.639150000000     0.0469962  
H33      H      0.408170000000     0.485880000000     0.801420000000     0.0487123  
H34      H      0.407640000000     0.485100000000     0.747510000000     0.0329772  
H35      H      0.550740000000     0.487150000000     0.747490000000     0.032983   
H36      H      0.550230000000     0.486330000000     0.801400000000     0.048714   
H37      H      0.477840000000     0.414510000000     0.841700000000     0.0487711  
H38      H      0.477100000000     0.414050000000     0.895610000000     0.0330276  
H39      H      0.481490000000     0.558280000000     0.895590000000     0.0330068  
H40      H      0.480620000000     0.557720000000     0.841680000000     0.0487648  
H41      H      0.422000000000     0.906540000000     0.799460000000     0.0470993  
H42      H      0.420620000000     0.907510000000     0.746000000000     0.0313847  
H43      H      0.537750000000     0.065120000000     0.745950000000     0.0313738  
H44      H      0.536410000000     0.066190000000     0.799410000000     0.0471032  
H45      H      0.558950000000     0.043980000000     0.841820000000     0.0471208  
H46      H      0.557980000000     0.045370000000     0.895280000000     0.0313085  
H47      H      0.400650000000     0.927530000000     0.895340000000     0.0312839  
H48      H      0.399560000000     0.928830000000     0.841880000000     0.0471043  
H49      H      0.720750000000     0.405870000000     0.003720000000     0.0488383  
H50      H      0.800950000000     0.405990000000     0.002920000000     0.0360831  
H51      H      0.877700000000     0.561220000000     0.972210000000     0.0338083  
H52      H      0.797440000000     0.560530000000     0.971710000000     0.0466115  
H53      H      0.736440000000     0.561610000000     0.002790000000     0.0485917  
H54      H      0.656980000000     0.562620000000     0.002230000000     0.0356776  
H55      H      0.577310000000     0.405730000000     0.974500000000     0.0339344  
H56      H      0.657150000000     0.405220000000     0.973750000000     0.0467738  
H57      H      0.238080000000     0.566670000000     0.003690000000     0.048841   
H58      H      0.157870000000     0.566540000000     0.002880000000     0.0361019  
H59      H      0.081100000000     0.411220000000     0.972330000000     0.0338692  
H60      H      0.161360000000     0.411920000000     0.971840000000     0.0466503  
H61      H      0.222410000000     0.410940000000     0.002930000000     0.0485949  
H62      H      0.301870000000     0.409930000000     0.002360000000     0.0356804  
H63      H      0.381480000000     0.566740000000     0.974470000000     0.0339159  
H64      H      0.301640000000     0.567240000000     0.973730000000     0.0467744  
H65      H      0.978410000000     0.414640000000     0.841480000000     0.0486062  
H66      H      0.977650000000     0.414210000000     0.895390000000     0.0327119  
H67      H      0.981090000000     0.558000000000     0.895310000000     0.0326964  
H68      H      0.980290000000     0.557420000000     0.841400000000     0.0486061  
H69      H      0.908210000000     0.485540000000     0.801220000000     0.0486914  
H70      H      0.907720000000     0.484750000000     0.747320000000     0.0327984  
H71      H      0.051020000000     0.487190000000     0.747350000000     0.0328177  
H72      H      0.050500000000     0.486430000000     0.801260000000     0.0486576  
H73      H      0.735730000000     0.060840000000     0.003400000000     0.0486227  
H74      H      0.656170000000     0.061540000000     0.002940000000     0.0357392  
H75      H      0.577600000000     0.906230000000     0.972380000000     0.0342974  
H76      H      0.657680000000     0.906100000000     0.971550000000     0.0468583  
H77      H      0.720670000000     0.905510000000     0.001500000000     0.048673   
H78      H      0.801010000000     0.906010000000     0.000750000000     0.0356347  
H79      H      0.878210000000     0.062810000000     0.972860000000     0.0337411  
H80      H      0.797740000000     0.061810000000     0.972300000000     0.0465842  
H81      H      0.223180000000     0.912220000000     0.003620000000     0.0486043  
H82      H      0.302760000000     0.911540000000     0.003130000000     0.0357377  
H83      H      0.381220000000     0.066760000000     0.972400000000     0.0342874  
H84      H      0.301130000000     0.066870000000     0.971590000000     0.0468546  
H85      H      0.238180000000     0.067520000000     0.001530000000     0.0487016  
H86      H      0.157830000000     0.067010000000     0.000760000000     0.0356459  
H87      H      0.080630000000     0.910110000000     0.973050000000     0.0337964  
H88      H      0.161110000000     0.911120000000     0.972520000000     0.0465755  
H89      H      0.978920000000     0.056890000000     0.840440000000     0.0486472  
H90      H      0.979720000000     0.057500000000     0.894350000000     0.032877   
H91      H      0.979110000000     0.915110000000     0.894460000000     0.0328461  
H92      H      0.979870000000     0.915510000000     0.840560000000     0.0485882  
H93      H      0.050660000000     0.986820000000     0.800230000000     0.0486583  
H94      H      0.051160000000     0.987530000000     0.746320000000     0.0329559  
H95      H      0.907620000000     0.984580000000     0.746270000000     0.0329669  
H96      H      0.908120000000     0.985430000000     0.800180000000     0.0486238  
H97      H      0.479790000000     0.415770000000     0.468060000000     0.0487818  
H98      H      0.480660000000     0.416110000000     0.414150000000     0.0330553  
H99      H      0.478260000000     0.556980000000     0.414170000000     0.0330432  
H100     H      0.478970000000     0.557200000000     0.468080000000     0.0487684  
H101     H      0.550480000000     0.557130000000     0.508390000000     0.0486701  
H102     H      0.550940000000     0.556780000000     0.562300000000     0.0329893  
H103     H      0.407610000000     0.415970000000     0.562230000000     0.0330092  
H104     H      0.408170000000     0.415750000000     0.508320000000     0.0486742  
H105     H      0.550690000000     0.557120000000     0.134710000000     0.0487477  
H106     H      0.550390000000     0.557560000000     0.080800000000     0.0332456  
H107     H      0.408610000000     0.415170000000     0.080860000000     0.0332591  
H108     H      0.408360000000     0.415750000000     0.134760000000     0.0487715  
H109     H      0.408970000000     0.487200000000     0.175020000000     0.0488268  
H110     H      0.409270000000     0.488040000000     0.228930000000     0.0331223  
H111     H      0.549840000000     0.485060000000     0.228950000000     0.0331219  
H112     H      0.550110000000     0.485790000000     0.175040000000     0.048863   
H113     H      0.559220000000     0.009060000000     0.465890000000     0.0475574  
H114     H      0.558310000000     0.006800000000     0.412430000000     0.0318378  
H115     H      0.400620000000     0.966050000000     0.412350000000     0.031332   
H116     H      0.399520000000     0.963590000000     0.465810000000     0.0470344  
H117     H      0.421650000000     0.008270000000     0.508250000000     0.0475653  
H118     H      0.420250000000     0.005850000000     0.561710000000     0.0319265  
H119     H      0.538220000000     0.966540000000     0.561740000000     0.0313919  
H120     H      0.536940000000     0.964220000000     0.508280000000     0.0470391  
H121     H      0.550550000000     0.986640000000     0.173910000000     0.0488034  
H122     H      0.550300000000     0.985870000000     0.227800000000     0.0327435  
H123     H      0.408960000000     0.987400000000     0.227810000000     0.0327324  
H124     H      0.408690000000     0.986640000000     0.173920000000     0.0488465  
H125     H      0.409230000000     0.915130000000     0.133800000000     0.0489303  
H126     H      0.409450000000     0.914600000000     0.079900000000     0.033111   
H127     H      0.549650000000     0.058560000000     0.079860000000     0.033112   
H128     H      0.549960000000     0.058100000000     0.133750000000     0.0489677  
H129     H      0.979610000000     0.557330000000     0.468220000000     0.0487179  
H130     H      0.978870000000     0.557160000000     0.414320000000     0.032813   
H131     H      0.980370000000     0.415810000000     0.414230000000     0.0328363  
H132     H      0.979570000000     0.415450000000     0.468130000000     0.0487223  
H133     H      0.908270000000     0.415740000000     0.508340000000     0.0487818  
H134     H      0.907740000000     0.415900000000     0.562240000000     0.032966   
H135     H      0.051300000000     0.556490000000     0.562330000000     0.0329719  
H136     H      0.050840000000     0.556880000000     0.508430000000     0.0487649  
H137     H      0.795690000000     0.230900000000     0.337060000000     0.0468305  
H138     H      0.876280000000     0.310040000000     0.336870000000     0.0340389  
H139     H      0.800580000000     0.390250000000     0.307370000000     0.0345128  
H140     H      0.719920000000     0.310500000000     0.306320000000     0.0472099  
H141     H      0.655640000000     0.246220000000     0.335790000000     0.0471778  
H142     H      0.575890000000     0.165560000000     0.334720000000     0.0345368  
H143     H      0.656100000000     0.089870000000     0.305200000000     0.0341369  
H144     H      0.735240000000     0.170450000000     0.305030000000     0.0468422  
H145     H      0.239250000000     0.662600000000     0.306220000000     0.0471725  
H146     H      0.158590000000     0.582850000000     0.307300000000     0.0345158  
H147     H      0.082910000000     0.663070000000     0.336820000000     0.0340664  
H148     H      0.163490000000     0.742220000000     0.336980000000     0.0467797  
H149     H      0.223930000000     0.802660000000     0.304930000000     0.0468135  
H150     H      0.303070000000     0.883250000000     0.305120000000     0.0339919  
H151     H      0.383280000000     0.807550000000     0.334630000000     0.0344946  
H152     H      0.303530000000     0.726890000000     0.335690000000     0.0471718  
H153     H      0.956860000000     0.406650000000     0.176090000000     0.0470999  
H154     H      0.959280000000     0.407720000000     0.229540000000     0.0314838  
H155     H      0.999720000000     0.565320000000     0.229500000000     0.0314248  
H156     H      0.002070000000     0.566290000000     0.176050000000     0.0472827  
H157     H      0.957820000000     0.544370000000     0.133530000000     0.0471181  
H158     H      0.960190000000     0.545640000000     0.080070000000     0.0317252  
H159     H      0.998700000000     0.427110000000     0.080130000000     0.0317021  
H160     H      0.001110000000     0.428510000000     0.133580000000     0.0473246  
H161     H      0.980050000000     0.915650000000     0.466820000000     0.0485331  
H162     H      0.980860000000     0.916040000000     0.412910000000     0.0327932  
H163     H      0.978230000000     0.056800000000     0.413030000000     0.0327948  
H164     H      0.979010000000     0.056970000000     0.466940000000     0.0485465  
H165     H      0.050650000000     0.056940000000     0.507200000000     0.0485516  
H166     H      0.051130000000     0.056560000000     0.561110000000     0.0328995  
H167     H      0.907860000000     0.915690000000     0.561040000000     0.0328861  
H168     H      0.908390000000     0.915510000000     0.507130000000     0.0485145  
H169     H      0.721780000000     0.806480000000     0.305640000000     0.0469406  
H170     H      0.801670000000     0.886660000000     0.306010000000     0.0337298  
H171     H      0.880060000000     0.808830000000     0.334970000000     0.0337689  
H172     H      0.799920000000     0.728930000000     0.335950000000     0.0469505  
H173     H      0.737170000000     0.666200000000     0.305890000000     0.0469406  
H174     H      0.657260000000     0.586060000000     0.306880000000     0.034007   
H175     H      0.579470000000     0.664450000000     0.335900000000     0.0339779  
H176     H      0.659650000000     0.744330000000     0.336270000000     0.0469366  
H177     H      0.299440000000     0.228820000000     0.336260000000     0.0469978  
H178     H      0.379620000000     0.308710000000     0.335880000000     0.0340079  
H179     H      0.301790000000     0.387090000000     0.306900000000     0.0340179  
H180     H      0.221890000000     0.306950000000     0.305930000000     0.0469871  
H181     H      0.159170000000     0.244210000000     0.336020000000     0.0469616  
H182     H      0.079030000000     0.164310000000     0.335050000000     0.0338377  
H183     H      0.157400000000     0.086500000000     0.306020000000     0.0339003  
H184     H      0.237280000000     0.166680000000     0.305640000000     0.0470116  
H185     H      0.909230000000     0.915100000000     0.133570000000     0.048632   
H186     H      0.909500000000     0.914530000000     0.079660000000     0.0331396  
H187     H      0.049350000000     0.058750000000     0.079610000000     0.0331502  
H188     H      0.049670000000     0.058300000000     0.133520000000     0.0486849  
H189     H      0.050270000000     0.986440000000     0.173800000000     0.0485994  
H190     H      0.050010000000     0.985620000000     0.227710000000     0.0328396  
H191     H      0.909020000000     0.987770000000     0.227760000000     0.0327932  
H192     H      0.908700000000     0.986990000000     0.173850000000     0.0486149  
Ni1      Ni     0.956830000000     0.009210000000     0.320380000000     0.994812   
Ni2      Ni     0.002250000000     0.963940000000     0.320330000000     0.993313   
Ni3      Ni     0.000850000000     0.462490000000     0.321740000000     0.995516   
Ni4      Ni     0.958330000000     0.510610000000     0.321770000000     0.994221   
Ni5      Ni     0.503640000000     0.965290000000     0.320250000000     0.994977   
Ni6      Ni     0.455520000000     0.007830000000     0.320250000000     0.996432   
Ni7      Ni     0.456900000000     0.509290000000     0.321540000000     0.994539   
Ni8      Ni     0.502170000000     0.463860000000     0.321550000000     0.994535   
Ni9      Ni     0.957250000000     0.941140000000     0.987040000000     0.991685   
Ni10     Ni     0.001580000000     0.031820000000     0.986990000000     0.99318    
Ni11     Ni     0.001190000000     0.531590000000     0.987850000000     0.993958   
Ni12     Ni     0.957620000000     0.440900000000     0.987900000000     0.993279   
Ni13     Ni     0.455880000000     0.941170000000     0.987450000000     0.994113   
Ni14     Ni     0.502990000000     0.031870000000     0.987430000000     0.994981   
Ni15     Ni     0.502590000000     0.531600000000     0.988200000000     0.992778   
Ni16     Ni     0.456240000000     0.440910000000     0.988240000000     0.992677   
Ni17     Ni     0.024790000000     0.008760000000     0.653700000000     0.995245   
Ni18     Ni     0.934100000000     0.963340000000     0.653680000000     0.993171   
Ni19     Ni     0.024790000000     0.508680000000     0.654820000000     0.99557    
Ni20     Ni     0.934090000000     0.463410000000     0.654800000000     0.995164   
Ni21     Ni     0.433860000000     0.963520000000     0.653850000000     0.994573   
Ni22     Ni     0.524540000000     0.008940000000     0.653860000000     0.996622   
Ni23     Ni     0.433880000000     0.463600000000     0.654870000000     0.994177   
Ni24     Ni     0.524570000000     0.508880000000     0.654890000000     0.994291   
O1       O      0.957740000000     0.007190000000     0.278260000000    -0.436976   
O2       O      0.958920000000     0.008220000000     0.362500000000    -0.437246   
O3       O      0.021280000000     0.070720000000     0.320250000000    -0.438187   
O4       O      0.895400000000     0.944690000000     0.320520000000    -0.438593   
O5       O      0.937800000000     0.902430000000     0.320180000000    -0.438232   
O6       O      0.063680000000     0.028460000000     0.320500000000    -0.437906   
O7       O      0.000180000000     0.964800000000     0.362460000000    -0.437263   
O8       O      0.001310000000     0.966070000000     0.278210000000    -0.437213   
O9       O      0.935390000000     0.402480000000     0.322300000000    -0.439557   
O10      O      0.063730000000     0.525970000000     0.321220000000    -0.436689   
O11      O      0.999930000000     0.464510000000     0.363830000000    -0.43822    
O12      O      0.998420000000     0.463120000000     0.279650000000    -0.437885   
O13      O      0.960690000000     0.509980000000     0.279660000000    -0.437557   
O14      O      0.959310000000     0.508580000000     0.363860000000    -0.437986   
O15      O      0.023790000000     0.570620000000     0.322300000000    -0.439231   
O16      O      0.895450000000     0.447140000000     0.321260000000    -0.436485   
O17      O      0.563650000000     0.030750000000     0.319730000000    -0.439171   
O18      O      0.440160000000     0.902420000000     0.320730000000    -0.436724   
O19      O      0.501640000000     0.966280000000     0.278180000000    -0.438536   
O20      O      0.502970000000     0.967640000000     0.362320000000    -0.438245   
O21      O      0.456120000000     0.005390000000     0.362330000000    -0.437832   
O22      O      0.457590000000     0.006920000000     0.278180000000    -0.438374   
O23      O      0.395510000000     0.942360000000     0.319680000000    -0.439886   
O24      O      0.519000000000     0.070700000000     0.320790000000    -0.436659   
O25      O      0.395390000000     0.444840000000     0.321670000000    -0.438115   
O26      O      0.521420000000     0.570720000000     0.321390000000    -0.438111   
O27      O      0.457850000000     0.507210000000     0.279420000000    -0.437477   
O28      O      0.458960000000     0.508360000000     0.363660000000    -0.437448   
O29      O      0.500080000000     0.464800000000     0.363670000000    -0.437502   
O30      O      0.501260000000     0.465930000000     0.279430000000    -0.437472   
O31      O      0.563680000000     0.528310000000     0.321690000000    -0.438017   
O32      O      0.437650000000     0.402430000000     0.321390000000    -0.438088   
O33      O      0.022200000000     0.945160000000     0.987220000000    -0.438069   
O34      O      0.895240000000     0.943150000000     0.986840000000    -0.438111   
O35      O      0.959310000000     0.944070000000     0.944920000000    -0.437085   
O36      O      0.958120000000     0.944210000000     0.029160000000    -0.435974   
O37      O      0.000720000000     0.028900000000     0.029110000000    -0.435732   
O38      O      0.999520000000     0.028730000000     0.944870000000    -0.436988   
O39      O      0.936640000000     0.027800000000     0.987120000000    -0.43808    
O40      O      0.063600000000     0.029810000000     0.986840000000    -0.437889   
O41      O      0.063520000000     0.529960000000     0.988390000000    -0.437197   
O42      O      0.936190000000     0.527150000000     0.987280000000    -0.439715   
O43      O      0.998760000000     0.528630000000     0.029950000000    -0.436521   
O44      O      0.000200000000     0.528530000000     0.945760000000    -0.437885   
O45      O      0.958580000000     0.443830000000     0.945800000000    -0.437868   
O46      O      0.960080000000     0.443980000000     0.029990000000    -0.436396   
O47      O      0.895290000000     0.442520000000     0.988410000000    -0.437077   
O48      O      0.022620000000     0.445330000000     0.987350000000    -0.439431   
O49      O      0.519840000000     0.942800000000     0.986890000000    -0.436894   
O50      O      0.395310000000     0.945600000000     0.988040000000    -0.439615   
O51      O      0.456400000000     0.944160000000     0.945380000000    -0.438076   
O52      O      0.457970000000     0.944190000000     0.029520000000    -0.437228   
O53      O      0.501020000000     0.028900000000     0.029500000000    -0.437076   
O54      O      0.502370000000     0.028810000000     0.945360000000    -0.437882   
O55      O      0.439030000000     0.030230000000     0.986920000000    -0.436745   
O56      O      0.563560000000     0.027430000000     0.987970000000    -0.439428   
O57      O      0.438570000000     0.529590000000     0.988390000000    -0.438005   
O58      O      0.563510000000     0.527570000000     0.988030000000    -0.438477   
O59      O      0.500420000000     0.528560000000     0.946080000000    -0.437156   
O60      O      0.501690000000     0.528640000000     0.030320000000    -0.436095   
O61      O      0.457230000000     0.443980000000     0.030360000000    -0.436144   
O62      O      0.458320000000     0.443860000000     0.946110000000    -0.437      
O63      O      0.520250000000     0.442920000000     0.988400000000    -0.438084   
O64      O      0.395320000000     0.444940000000     0.988090000000    -0.438318   
O65      O      0.021760000000     0.006670000000     0.695820000000    -0.43696    
O66      O      0.021810000000     0.007840000000     0.611580000000    -0.437103   
O67      O      0.021700000000     0.070190000000     0.653850000000    -0.438166   
O68      O      0.021840000000     0.944300000000     0.653560000000    -0.438406   
O69      O      0.937180000000     0.901900000000     0.653830000000    -0.437969   
O70      O      0.937040000000     0.027790000000     0.653540000000    -0.437774   
O71      O      0.937120000000     0.964280000000     0.611560000000    -0.437304   
O72      O      0.937070000000     0.965400000000     0.695800000000    -0.437265   
O73      O      0.021700000000     0.444170000000     0.654660000000    -0.438325   
O74      O      0.021840000000     0.570190000000     0.654970000000    -0.438213   
O75      O      0.021750000000     0.506580000000     0.696920000000    -0.4381     
O76      O      0.021820000000     0.507800000000     0.612730000000    -0.438212   
O77      O      0.937130000000     0.464400000000     0.612700000000    -0.438121   
O78      O      0.937060000000     0.465420000000     0.696890000000    -0.438193   
O79      O      0.937180000000     0.527930000000     0.654670000000    -0.438336   
O80      O      0.937040000000     0.401900000000     0.654910000000    -0.438253   
O81      O      0.436840000000     0.027970000000     0.655060000000    -0.437797   
O82      O      0.436990000000     0.902130000000     0.652660000000    -0.438085   
O83      O      0.436870000000     0.963060000000     0.695910000000    -0.438056   
O84      O      0.436890000000     0.967010000000     0.611790000000    -0.43806    
O85      O      0.521520000000     0.005390000000     0.611810000000    -0.437872   
O86      O      0.521500000000     0.009460000000     0.695920000000    -0.437855   
O87      O      0.521550000000     0.944490000000     0.655110000000    -0.438527   
O88      O      0.521400000000     0.070320000000     0.652620000000    -0.438305   
O89      O      0.436830000000     0.402100000000     0.655020000000    -0.438205   
O90      O      0.436960000000     0.528120000000     0.654720000000    -0.438157   
O91      O      0.436900000000     0.464540000000     0.612750000000    -0.437427   
O92      O      0.436860000000     0.465660000000     0.697000000000    -0.437241   
O93      O      0.521550000000     0.506710000000     0.697010000000    -0.437373   
O94      O      0.521590000000     0.508050000000     0.612770000000    -0.437414   
O95      O      0.521610000000     0.570380000000     0.655090000000    -0.438251   
O96      O      0.521490000000     0.444360000000     0.654670000000    -0.43818    


