data_structure

_audit_creation_method RASPA-1.0
_audit_creation_date 2023-6-5
_audit_author_name 'Poobodin Mano'

_cell_length_a    63.7437
_cell_length_b    63.706
_cell_length_c    38.4645
_cell_angle_alpha 89.9433
_cell_angle_beta  90.0564
_cell_angle_gamma 119.888
_cell_volume      135424

_symmetry_cell_setting          triclinic
_symmetry_space_group_name_Hall 'P 1'
_symmetry_space_group_name_H-M  'P 1'
_symmetry_Int_Tables_number     1

_symmetry_equiv_pos_as_xyz 'x,y,z'

loop_
_atom_site_label
_atom_site_type_symbol
_atom_site_fract_x
_atom_site_fract_y
_atom_site_fract_z
_atom_site_charge
C1       C      0.866400000000     0.681650000000     0.589040000000     0.386878   
C2       C      0.844690000000     0.678730000000     0.717130000000     0.387058   
C3       C      0.810880000000     0.658770000000     0.636170000000     0.386276   
C4       C      0.900120000000     0.701410000000     0.669950000000     0.38638    
C5       C      0.178110000000     0.835960000000     0.882140000000     0.387987   
C6       C      0.200380000000     0.851080000000     0.753840000000     0.387501   
C7       C      0.233890000000     0.866300000000     0.835080000000     0.386079   
C8       C      0.144700000000     0.820940000000     0.800980000000     0.385838   
C9       C      0.534040000000     0.015220000000     0.920690000000     0.387112   
C10      C      0.511220000000     0.009200000000     0.048720000000     0.387416   
C11      C      0.478140000000     0.990110000000     0.967310000000     0.38637    
C12      C      0.567180000000     0.034290000000     0.002160000000     0.38651    
C13      C      0.178800000000     0.337290000000     0.381830000000     0.387775   
C14      C      0.200060000000     0.341100000000     0.253490000000     0.387583   
C15      C      0.234130000000     0.361180000000     0.334160000000     0.386256   
C16      C      0.144740000000     0.317330000000     0.301170000000     0.386375   
C17      C      0.867270000000     0.184820000000     0.087620000000     0.387435   
C18      C      0.844650000000     0.168170000000     0.215760000000     0.386887   
C19      C      0.811400000000     0.154820000000     0.134510000000     0.386414   
C20      C      0.900520000000     0.198120000000     0.168900000000     0.386232   
C21      C      0.533970000000     0.519460000000     0.420540000000     0.387037   
C22      C      0.511230000000     0.502360000000     0.548570000000     0.387368   
C23      C      0.478170000000     0.487150000000     0.467080000000     0.386146   
C24      C      0.567120000000     0.534690000000     0.502110000000     0.385931   
C25      C      0.182450000000     0.350590000000     0.753190000000     0.387507   
C26      C      0.197690000000     0.343770000000     0.881620000000     0.387947   
C27      C      0.213190000000     0.325700000000     0.800680000000     0.386959   
C28      C      0.166760000000     0.368610000000     0.834220000000     0.387421   
C29      C      0.352480000000     0.165980000000     0.714650000000     0.386799   
C30      C      0.352280000000     0.186780000000     0.586700000000     0.386873   
C31      C      0.332180000000     0.200790000000     0.667240000000     0.387142   
C32      C      0.372670000000     0.151980000000     0.634060000000     0.386866   
C33      C      0.019270000000     0.521210000000     0.918670000000     0.387045   
C34      C      0.022440000000     0.502380000000     0.046700000000     0.387547   
C35      C      0.042350000000     0.488630000000     0.965870000000     0.387006   
C36      C      0.999360000000     0.534950000000     0.999550000000     0.386803   
C37      C      0.687240000000     0.854960000000     0.254200000000     0.387165   
C38      C      0.689920000000     0.836370000000     0.382490000000     0.387069   
C39      C      0.710190000000     0.822570000000     0.302040000000     0.387062   
C40      C      0.666780000000     0.868670000000     0.334690000000     0.387216   
C41      C      0.863200000000     0.674980000000     0.217380000000     0.386976   
C42      C      0.845990000000     0.680620000000     0.089330000000     0.387185   
C43      C      0.831750000000     0.699560000000     0.170700000000     0.387194   
C44      C      0.877460000000     0.656150000000     0.135980000000     0.387348   
C45      C      0.527190000000     0.006910000000     0.548970000000     0.387044   
C46      C      0.508300000000     0.009410000000     0.420760000000     0.387144   
C47      C      0.493920000000     0.029080000000     0.501410000000     0.387137   
C48      C      0.541560000000     0.987350000000     0.468270000000     0.387053   
C49      C      0.348300000000     0.165700000000     0.086730000000     0.386719   
C50      C      0.354010000000     0.188590000000     0.214710000000     0.386918   
C51      C      0.372410000000     0.221620000000     0.133160000000     0.38653    
C52      C      0.329790000000     0.132640000000     0.168320000000     0.386441   
C53      C      0.526460000000     0.521270000000     0.048770000000     0.387224   
C54      C      0.507930000000     0.499980000000     0.920530000000     0.387137   
C55      C      0.493990000000     0.465900000000     0.001130000000     0.386951   
C56      C      0.540370000000     0.555280000000     0.968140000000     0.387209   
C57      C      0.191660000000     0.854530000000     0.382450000000     0.387941   
C58      C      0.174130000000     0.833650000000     0.254020000000     0.38826    
C59      C      0.159610000000     0.799350000000     0.334530000000     0.386626   
C60      C      0.206330000000     0.888800000000     0.301960000000     0.386724   
C61      C      0.018230000000     0.499400000000     0.418780000000     0.386998   
C62      C      0.020970000000     0.521250000000     0.546730000000     0.387621   
C63      C      0.039970000000     0.554840000000     0.465770000000     0.386469   
C64      C      0.999050000000     0.465690000000     0.499820000000     0.385992   
C65      C      0.864810000000     0.188720000000     0.715710000000     0.387071   
C66      C      0.847660000000     0.166170000000     0.587610000000     0.387239   
C67      C      0.833330000000     0.132900000000     0.668910000000     0.386943   
C68      C      0.879110000000     0.222020000000     0.634320000000     0.386841   
C69      C      0.689030000000     0.855310000000     0.882080000000     0.386989   
C70      C      0.683200000000     0.832490000000     0.754080000000     0.387082   
C71      C      0.663900000000     0.799400000000     0.835470000000     0.386704   
C72      C      0.708440000000     0.888480000000     0.800710000000     0.386725   
C73      C      0.820210000000     0.107340000000     0.680650000000    -0.116368   
C74      C      0.795180000000     0.095610000000     0.687130000000     0.0300701  
C75      C      0.782980000000     0.071880000000     0.699740000000    -0.0730972  
C76      C      0.795500000000     0.059310000000     0.706230000000     0.0325792  
C77      C      0.820470000000     0.070920000000     0.699280000000    -0.0731248  
C78      C      0.832670000000     0.094650000000     0.686620000000     0.0300753  
C79      C      0.782640000000     0.034310000000     0.720620000000    -0.00110031 
C80      C      0.765020000000     0.027940000000     0.746680000000    -0.0369839  
C81      C      0.753040000000     0.004510000000     0.760400000000    -0.0371463  
C82      C      0.758450000000     0.986900000000     0.748460000000    -0.0011099  
C83      C      0.776060000000     0.993250000000     0.722400000000    -0.0370912  
C84      C      0.788000000000     0.016660000000     0.708620000000    -0.0371158  
C85      C      0.745730000000     0.961970000000     0.762990000000     0.0325752  
C86      C      0.720660000000     0.950010000000     0.769080000000    -0.0729714  
C87      C      0.708590000000     0.926290000000     0.781810000000     0.0298978  
C88      C      0.721350000000     0.914020000000     0.788840000000    -0.116211   
C89      C      0.746490000000     0.926150000000     0.783280000000     0.0300979  
C90      C      0.758530000000     0.949820000000     0.770460000000    -0.073259   
C91      C      0.892090000000     0.247510000000     0.622250000000    -0.116275   
C92      C      0.879380000000     0.259890000000     0.615700000000     0.03004    
C93      C      0.891340000000     0.283440000000     0.602420000000    -0.0731674  
C94      C      0.916300000000     0.295220000000     0.595510000000     0.0324718  
C95      C      0.929120000000     0.283040000000     0.602720000000    -0.0731526  
C96      C      0.917140000000     0.259440000000     0.615860000000     0.0299742  
C97      C      0.928810000000     0.319950000000     0.580320000000    -0.00100832 
C98      C      0.917980000000     0.326050000000     0.553270000000    -0.0373144  
C99      C      0.929600000000     0.349330000000     0.539050000000    -0.0368737  
C100     C      0.952300000000     0.367120000000     0.551610000000    -0.00161475 
C101     C      0.963220000000     0.360950000000     0.578510000000    -0.0368242  
C102     C      0.951620000000     0.337620000000     0.592660000000    -0.0373719  
C103     C      0.964300000000     0.392120000000     0.537190000000     0.0334737  
C104     C      0.950640000000     0.403300000000     0.529170000000    -0.0738409  
C105     C      0.961880000000     0.426990000000     0.516470000000     0.0304805  
C106     C      0.987090000000     0.440140000000     0.511580000000    -0.117435   
C107     C      0.000740000000     0.428890000000     0.519200000000     0.0322778  
C108     C      0.989460000000     0.405140000000     0.531830000000    -0.0753352  
C109     C      0.051860000000     0.580420000000     0.454180000000    -0.116263   
C110     C      0.038160000000     0.591720000000     0.447260000000     0.0300296  
C111     C      0.049330000000     0.615530000000     0.434920000000    -0.0729157  
C112     C      0.074450000000     0.628580000000     0.429150000000     0.0325021  
C113     C      0.088150000000     0.617340000000     0.436420000000    -0.0731698  
C114     C      0.077010000000     0.593580000000     0.448830000000     0.0299034  
C115     C      0.086330000000     0.653690000000     0.415150000000    -0.00114424 
C116     C      0.075200000000     0.660090000000     0.388830000000    -0.0369999  
C117     C      0.086710000000     0.683530000000     0.375060000000    -0.0372092  
C118     C      0.109640000000     0.701080000000     0.387200000000    -0.00113144 
C119     C      0.120660000000     0.694760000000     0.413720000000    -0.0372912  
C120     C      0.109130000000     0.671370000000     0.427570000000    -0.0371318  
C121     C      0.122130000000     0.725890000000     0.372270000000     0.0325711  
C122     C      0.109430000000     0.738270000000     0.365810000000    -0.0731304  
C123     C      0.121480000000     0.761980000000     0.352970000000     0.029814   
C124     C      0.146470000000     0.773760000000     0.346160000000    -0.116237   
C125     C      0.159030000000     0.761140000000     0.351920000000     0.0300928  
C126     C      0.147020000000     0.737510000000     0.364880000000    -0.0734126  
C127     C      0.651080000000     0.773880000000     0.847400000000    -0.116272   
C128     C      0.625990000000     0.761750000000     0.853430000000     0.0299626  
C129     C      0.614110000000     0.738120000000     0.866420000000    -0.0732483  
C130     C      0.627010000000     0.726020000000     0.873530000000     0.0325922  
C131     C      0.652020000000     0.737980000000     0.866930000000    -0.0731272  
C132     C      0.663930000000     0.761650000000     0.854080000000     0.0301161  
C133     C      0.614490000000     0.701150000000     0.888240000000    -0.00108062 
C134     C      0.597310000000     0.694930000000     0.914890000000    -0.0371853  
C135     C      0.585620000000     0.671580000000     0.928910000000    -0.0370997  
C136     C      0.590780000000     0.653880000000     0.916550000000    -0.00112518 
C137     C      0.607990000000     0.660130000000     0.889890000000    -0.0370316  
C138     C      0.619740000000     0.683500000000     0.875950000000    -0.0372125  
C139     C      0.578070000000     0.628920000000     0.931060000000     0.0325442  
C140     C      0.553230000000     0.617430000000     0.938810000000    -0.0731577  
C141     C      0.541110000000     0.593710000000     0.951470000000     0.0300487  
C142     C      0.553520000000     0.580880000000     0.956610000000    -0.116559   
C143     C      0.578440000000     0.592490000000     0.949360000000     0.0301608  
C144     C      0.590570000000     0.616230000000     0.936770000000    -0.0730663  
C145     C      0.317390000000     0.107190000000     0.180540000000    -0.116215   
C146     C      0.330560000000     0.095380000000     0.187800000000     0.0300238  
C147     C      0.318920000000     0.071780000000     0.201020000000    -0.0730209  
C148     C      0.293880000000     0.059530000000     0.207420000000     0.0325946  
C149     C      0.280670000000     0.071200000000     0.199670000000    -0.0732678  
C150     C      0.292260000000     0.094720000000     0.186340000000     0.0299247  
C151     C      0.281570000000     0.034770000000     0.222550000000    -0.00104785 
C152     C      0.287050000000     0.017180000000     0.210770000000    -0.0371915  
C153     C      0.275200000000     0.993820000000     0.224760000000    -0.0369544  
C154     C      0.257670000000     0.987540000000     0.250960000000    -0.00115188 
C155     C      0.252380000000     0.005230000000     0.262930000000    -0.0370389  
C156     C      0.264170000000     0.028560000000     0.248870000000    -0.0371652  
C157     C      0.244700000000     0.962540000000     0.265340000000     0.0325964  
C158     C      0.257050000000     0.949760000000     0.271570000000    -0.073137   
C159     C      0.244680000000     0.925990000000     0.284010000000     0.0302271  
C160     C      0.219680000000     0.914440000000     0.290590000000    -0.116303   
C161     C      0.207410000000     0.927350000000     0.284940000000     0.0300141  
C162     C      0.219760000000     0.951100000000     0.272420000000    -0.0731926  
C163     C      0.480810000000     0.440270000000     0.012530000000    -0.116429   
C164     C      0.455840000000     0.428580000000     0.019430000000     0.0300944  
C165     C      0.443670000000     0.404770000000     0.031780000000    -0.0730459  
C166     C      0.456190000000     0.392100000000     0.037560000000     0.0325552  
C167     C      0.481090000000     0.403700000000     0.030200000000    -0.0730641  
C168     C      0.493240000000     0.427480000000     0.017790000000     0.0301093  
C169     C      0.443450000000     0.367050000000     0.051750000000    -0.001041   
C170     C      0.426090000000     0.360570000000     0.078230000000    -0.0370024  
C171     C      0.414490000000     0.337160000000     0.092060000000    -0.0370928  
C172     C      0.420050000000     0.319720000000     0.079830000000    -0.00110398 
C173     C      0.437300000000     0.326150000000     0.053230000000    -0.0370809  
C174     C      0.448840000000     0.349520000000     0.039330000000    -0.0370966  
C175     C      0.407930000000     0.294890000000     0.094690000000     0.0326396  
C176     C      0.382930000000     0.282530000000     0.101370000000    -0.0730779  
C177     C      0.371440000000     0.258880000000     0.114370000000     0.0300815  
C178     C      0.384720000000     0.247110000000     0.121090000000    -0.116136   
C179     C      0.409810000000     0.259660000000     0.114990000000     0.0298439  
C180     C      0.421260000000     0.283250000000     0.101880000000    -0.0732457  
C181     C      0.682250000000     0.827410000000     0.716360000000    -0.116435   
C182     C      0.699000000000     0.821970000000     0.701080000000     0.0301258  
C183     C      0.699160000000     0.818930000000     0.665100000000    -0.0730014  
C184     C      0.682710000000     0.821440000000     0.643540000000     0.0324992  
C185     C      0.665570000000     0.826280000000     0.659000000000    -0.0729125  
C186     C      0.665280000000     0.829130000000     0.694970000000     0.0302267  
C187     C      0.684130000000     0.820300000000     0.605010000000    -0.000988056
C188     C      0.706720000000     0.830710000000     0.588230000000    -0.0369373  
C189     C      0.708180000000     0.831440000000     0.551970000000    -0.0370764  
C190     C      0.687110000000     0.821960000000     0.531520000000    -0.00103332 
C191     C      0.664500000000     0.810870000000     0.548280000000    -0.036862   
C192     C      0.663030000000     0.809970000000     0.584550000000    -0.0371336  
C193     C      0.688740000000     0.824810000000     0.493030000000     0.0325781  
C194     C      0.671740000000     0.806520000000     0.471190000000    -0.0730341  
C195     C      0.672380000000     0.810030000000     0.435220000000     0.0301247  
C196     C      0.690120000000     0.831860000000     0.420250000000    -0.116496   
C197     C      0.707510000000     0.849860000000     0.441970000000     0.0303956  
C198     C      0.706770000000     0.846420000000     0.477890000000    -0.0730539  
C199     C      0.689860000000     0.860140000000     0.919780000000    -0.116997   
C200     C      0.668440000000     0.853480000000     0.938230000000     0.0308019  
C201     C      0.668860000000     0.856020000000     0.974340000000    -0.0729256  
C202     C      0.690790000000     0.865670000000     0.992850000000     0.0326603  
C203     C      0.712350000000     0.873200000000     0.974080000000    -0.0730081  
C204     C      0.711850000000     0.870260000000     0.938020000000     0.0309535  
C205     C      0.691020000000     0.866810000000     0.031590000000    -0.0011567  
C206     C      0.674450000000     0.871300000000     0.049730000000    -0.036899   
C207     C      0.673810000000     0.870890000000     0.086080000000    -0.0376076  
C208     C      0.689980000000     0.866430000000     0.105090000000    -0.0011334  
C209     C      0.706880000000     0.862500000000     0.087170000000    -0.0373017  
C210     C      0.707280000000     0.862500000000     0.050880000000    -0.0366405  
C211     C      0.688870000000     0.865060000000     0.143520000000     0.0328281  
C212     C      0.666840000000     0.850100000000     0.160490000000    -0.073347   
C213     C      0.666160000000     0.847150000000     0.196590000000     0.0305376  
C214     C      0.687460000000     0.859420000000     0.216410000000    -0.116795   
C215     C      0.709330000000     0.875090000000     0.199470000000     0.030677   
C216     C      0.710050000000     0.877710000000     0.163370000000    -0.0737799  
C217     C      0.818800000000     0.712140000000     0.182630000000    -0.116573   
C218     C      0.793780000000     0.699110000000     0.189220000000     0.0302145  
C219     C      0.781830000000     0.710860000000     0.202070000000    -0.0732463  
C220     C      0.794650000000     0.735880000000     0.208740000000     0.032743   
C221     C      0.819580000000     0.748960000000     0.201690000000    -0.0733753  
C222     C      0.831520000000     0.737240000000     0.188730000000     0.0302043  
C223     C      0.782150000000     0.748260000000     0.223430000000    -0.0011076  
C224     C      0.759290000000     0.742960000000     0.211010000000    -0.0371719  
C225     C      0.747620000000     0.754720000000     0.224780000000    -0.036945   
C226     C      0.758500000000     0.772000000000     0.251370000000    -0.00118354 
C227     C      0.781310000000     0.777180000000     0.263910000000    -0.0370308  
C228     C      0.793010000000     0.765470000000     0.250080000000    -0.0371885  
C229     C      0.746230000000     0.784770000000     0.265640000000     0.0326923  
C230     C      0.721110000000     0.772270000000     0.271320000000    -0.0731649  
C231     C      0.709470000000     0.784450000000     0.283680000000     0.0302646  
C232     C      0.722700000000     0.809410000000     0.290720000000    -0.116452   
C233     C      0.747890000000     0.821830000000     0.285610000000     0.0300429  
C234     C      0.759510000000     0.809660000000     0.273180000000    -0.0732488  
C235     C      0.555050000000     0.975290000000     0.456490000000    -0.116566   
C236     C      0.579980000000     0.988890000000     0.449470000000     0.0302673  
C237     C      0.592410000000     0.977680000000     0.436460000000    -0.0731707  
C238     C      0.580170000000     0.952640000000     0.430020000000     0.0326577  
C239     C      0.555330000000     0.938970000000     0.437590000000    -0.0734095  
C240     C      0.542920000000     0.950150000000     0.450750000000     0.0300677  
C241     C      0.593120000000     0.940860000000     0.414890000000    -0.00116652 
C242     C      0.616270000000     0.946770000000     0.426830000000    -0.0371344  
C243     C      0.628350000000     0.935530000000     0.412650000000    -0.0369774  
C244     C      0.617590000000     0.918190000000     0.386110000000    -0.00112689 
C245     C      0.594530000000     0.912470000000     0.373970000000    -0.037101   
C246     C      0.582420000000     0.923630000000     0.388230000000    -0.037185   
C247     C      0.630150000000     0.905760000000     0.371630000000     0.0326688  
C248     C      0.655260000000     0.918540000000     0.365750000000    -0.0731731  
C249     C      0.667120000000     0.906620000000     0.353200000000     0.0302032  
C250     C      0.654130000000     0.881650000000     0.346170000000    -0.116664   
C251     C      0.628960000000     0.868960000000     0.351510000000     0.030265   
C252     C      0.617140000000     0.880860000000     0.364140000000    -0.0732436  
C253     C      0.021300000000     0.526140000000     0.584350000000    -0.116462   
C254     C      0.999590000000     0.518340000000     0.602640000000     0.0300776  
C255     C      0.999780000000     0.520930000000     0.638750000000    -0.0736279  
C256     C      0.021740000000     0.531750000000     0.657340000000     0.0335568  
C257     C      0.043510000000     0.540480000000     0.638680000000    -0.0732947  
C258     C      0.043270000000     0.537500000000     0.602680000000     0.0311211  
C259     C      0.021890000000     0.532880000000     0.696080000000    -0.00147875 
C260     C      0.004620000000     0.536260000000     0.714230000000    -0.0360933  
C261     C      0.004100000000     0.535980000000     0.750600000000    -0.0368497  
C262     C      0.021080000000     0.532720000000     0.769600000000    -0.0013862  
C263     C      0.038620000000     0.529820000000     0.751620000000    -0.0372313  
C264     C      0.038920000000     0.529720000000     0.715340000000    -0.0365387  
C265     C      0.020130000000     0.531420000000     0.808060000000     0.0336723  
C266     C      0.998330000000     0.515940000000     0.825190000000    -0.0740935  
C267     C      0.997900000000     0.513000000000     0.861260000000     0.0299303  
C268     C      0.019210000000     0.525750000000     0.880930000000    -0.115963   
C269     C      0.040820000000     0.541950000000     0.863870000000     0.0305188  
C270     C      0.041300000000     0.544610000000     0.827780000000    -0.0737814  
C271     C      0.018430000000     0.495030000000     0.381020000000    -0.115917   
C272     C      0.997180000000     0.486240000000     0.361120000000     0.0297921  
C273     C      0.997880000000     0.483970000000     0.325030000000    -0.0740279  
C274     C      0.019890000000     0.490800000000     0.308140000000     0.033649   
C275     C      0.041010000000     0.499030000000     0.328080000000    -0.0738193  
C276     C      0.040260000000     0.500950000000     0.364170000000     0.0305453  
C277     C      0.021100000000     0.490690000000     0.269690000000    -0.00137547 
C278     C      0.004680000000     0.470340000000     0.250470000000    -0.0368472  
C279     C      0.005520000000     0.470730000000     0.214110000000    -0.0361948  
C280     C      0.022550000000     0.491630000000     0.196200000000    -0.00118375 
C281     C      0.038990000000     0.511920000000     0.215690000000    -0.0366051  
C282     C      0.038390000000     0.511380000000     0.251970000000    -0.037235   
C283     C      0.022700000000     0.492710000000     0.157450000000     0.0326267  
C284     C      0.000920000000     0.481080000000     0.138480000000    -0.0722408  
C285     C      0.000950000000     0.483490000000     0.102340000000     0.0314496  
C286     C      0.022680000000     0.497900000000     0.084380000000    -0.117163   
C287     C      0.044500000000     0.509050000000     0.103090000000     0.0311209  
C288     C      0.044540000000     0.506300000000     0.139130000000    -0.0730238  
C289     C      0.986910000000     0.548050000000     0.011350000000    -0.117923   
C290     C      0.000130000000     0.572960000000     0.018760000000     0.0323759  
C291     C      0.988490000000     0.585000000000     0.031660000000    -0.0745887  
C292     C      0.963380000000     0.572410000000     0.037490000000     0.0333292  
C293     C      0.950120000000     0.547590000000     0.029560000000    -0.0738273  
C294     C      0.961740000000     0.535560000000     0.016600000000     0.0307304  
C295     C      0.951080000000     0.584970000000     0.052360000000    -0.00137955 
C296     C      0.961980000000     0.601990000000     0.079260000000    -0.0369229  
C297     C      0.950220000000     0.613470000000     0.093690000000    -0.037168   
C298     C      0.927260000000     0.608130000000     0.081650000000    -0.0011509  
C299     C      0.916400000000     0.591180000000     0.054700000000    -0.0371263  
C300     C      0.928180000000     0.579770000000     0.040190000000    -0.0369862  
C301     C      0.914710000000     0.620270000000     0.096940000000     0.0328041  
C302     C      0.927450000000     0.645250000000     0.103870000000    -0.0733135  
C303     C      0.915450000000     0.656830000000     0.117120000000     0.0304549  
C304     C      0.890450000000     0.643670000000     0.123860000000    -0.116834   
C305     C      0.877820000000     0.618590000000     0.117570000000     0.030275   
C306     C      0.889810000000     0.607040000000     0.104200000000    -0.0734733  
C307     C      0.351640000000     0.161070000000     0.752400000000    -0.116514   
C308     C      0.329420000000     0.145880000000     0.768850000000     0.0304421  
C309     C      0.328220000000     0.143040000000     0.804950000000    -0.0736968  
C310     C      0.349270000000     0.155000000000     0.825280000000     0.0327639  
C311     C      0.371610000000     0.169440000000     0.808780000000    -0.0733227  
C312     C      0.372770000000     0.172600000000     0.772710000000     0.0305459  
C313     C      0.347750000000     0.153520000000     0.863730000000    -0.00102676 
C314     C      0.331010000000     0.157870000000     0.881310000000    -0.0373898  
C315     C      0.330450000000     0.158000000000     0.917600000000    -0.036569   
C316     C      0.346390000000     0.153420000000     0.937250000000    -0.00118463 
C317     C      0.362740000000     0.148450000000     0.919470000000    -0.0367881  
C318     C      0.363550000000     0.148700000000     0.883120000000    -0.037737   
C319     C      0.346570000000     0.154830000000     0.975990000000     0.0324882  
C320     C      0.325040000000     0.147740000000     0.994630000000    -0.0728186  
C321     C      0.325520000000     0.150860000000     0.030660000000     0.0305408  
C322     C      0.347460000000     0.160760000000     0.049010000000    -0.116386   
C323     C      0.368850000000     0.167030000000     0.030690000000     0.0303621  
C324     C      0.368440000000     0.164290000000     0.994610000000    -0.0727245  
C325     C      0.354990000000     0.193580000000     0.252410000000    -0.116583   
C326     C      0.333660000000     0.187020000000     0.271080000000     0.0303647  
C327     C      0.334280000000     0.189680000000     0.307200000000    -0.0727099  
C328     C      0.356310000000     0.199330000000     0.325490000000     0.0325094  
C329     C      0.377750000000     0.206780000000     0.306490000000    -0.072858   
C330     C      0.377070000000     0.203740000000     0.270440000000     0.0306841  
C331     C      0.356750000000     0.200540000000     0.364250000000    -0.00116951 
C332     C      0.340390000000     0.205190000000     0.382600000000    -0.0368707  
C333     C      0.339890000000     0.204770000000     0.418970000000    -0.0376252  
C334     C      0.355980000000     0.200070000000     0.437790000000    -0.000998741
C335     C      0.372730000000     0.196020000000     0.419630000000    -0.0374533  
C336     C      0.373000000000     0.196080000000     0.383330000000    -0.0365558  
C337     C      0.354760000000     0.198350000000     0.476240000000     0.032656   
C338     C      0.332550000000     0.183740000000     0.492970000000    -0.0732043  
C339     C      0.331650000000     0.180370000000     0.528980000000     0.0305046  
C340     C      0.352910000000     0.191830000000     0.549020000000    -0.116416   
C341     C      0.375010000000     0.207170000000     0.532380000000     0.0302549  
C342     C      0.375940000000     0.210230000000     0.496320000000    -0.073474   
C343     C      0.384540000000     0.138320000000     0.622190000000    -0.116446   
C344     C      0.370800000000     0.113490000000     0.614410000000     0.0300427  
C345     C      0.381970000000     0.101020000000     0.601260000000    -0.0731136  
C346     C      0.407070000000     0.113160000000     0.595430000000     0.0326933  
C347     C      0.420840000000     0.137860000000     0.603790000000    -0.0735783  
C348     C      0.409720000000     0.150280000000     0.617090000000     0.0301182  
C349     C      0.418890000000     0.100300000000     0.580120000000    -0.0011992  
C350     C      0.412930000000     0.077040000000     0.591660000000    -0.0371368  
C351     C      0.424530000000     0.065250000000     0.577690000000    -0.0369952  
C352     C      0.442270000000     0.076420000000     0.551740000000    -0.00104361 
C353     C      0.447910000000     0.099520000000     0.539830000000    -0.0371986  
C354     C      0.436390000000     0.111330000000     0.553910000000    -0.0371478  
C355     C      0.455260000000     0.064300000000     0.537700000000     0.0324833  
C356     C      0.442960000000     0.039210000000     0.531440000000    -0.072975   
C357     C      0.455400000000     0.027810000000     0.519170000000     0.0300481  
C358     C      0.480430000000     0.041240000000     0.512810000000    -0.116359   
C359     C      0.492660000000     0.066360000000     0.518590000000     0.0301031  
C360     C      0.480240000000     0.077730000000     0.530950000000    -0.0730225  
C361     C      0.054890000000     0.475560000000     0.954310000000    -0.116601   
C362     C      0.041770000000     0.450680000000     0.946680000000     0.0302774  
C363     C      0.053570000000     0.438690000000     0.934220000000    -0.073075   
C364     C      0.078760000000     0.451300000000     0.929070000000     0.0326678  
C365     C      0.091900000000     0.476100000000     0.937130000000    -0.0733455  
C366     C      0.080120000000     0.488080000000     0.949630000000     0.030171   
C367     C      0.091300000000     0.438790000000     0.914820000000    -0.00110894 
C368     C      0.080840000000     0.421850000000     0.887740000000    -0.0370266  
C369     C      0.092900000000     0.410500000000     0.873830000000    -0.0371525  
C370     C      0.115710000000     0.415900000000     0.886620000000    -0.0011337  
C371     C      0.126110000000     0.432740000000     0.913800000000    -0.0370904  
C372     C      0.114040000000     0.444020000000     0.927770000000    -0.0371259  
C373     C      0.128610000000     0.403950000000     0.871840000000     0.0327465  
C374     C      0.116090000000     0.379020000000     0.864580000000    -0.0732585  
C375     C      0.128400000000     0.367620000000     0.851820000000     0.0304039  
C376     C      0.153490000000     0.380920000000     0.845900000000    -0.116718   
C377     C      0.165920000000     0.405950000000     0.852520000000     0.0302018  
C378     C      0.153620000000     0.417320000000     0.865400000000    -0.0733589  
C379     C      0.226330000000     0.313230000000     0.789110000000    -0.116562   
C380     C      0.213680000000     0.288200000000     0.782530000000     0.0302468  
C381     C      0.225790000000     0.276550000000     0.770020000000    -0.0732121  
C382     C      0.250850000000     0.289620000000     0.763880000000     0.0326791  
C383     C      0.263570000000     0.314600000000     0.770910000000    -0.0731749  
C384     C      0.251450000000     0.326280000000     0.783370000000     0.0300828  
C385     C      0.263510000000     0.277220000000     0.749660000000    -0.00116179 
C386     C      0.257340000000     0.253870000000     0.761070000000    -0.0370562  
C387     C      0.268610000000     0.241850000000     0.746890000000    -0.0371952  
C388     C      0.286390000000     0.252920000000     0.721030000000    -0.0011098  
C389     C      0.292830000000     0.276390000000     0.709920000000    -0.0372287  
C390     C      0.281490000000     0.288400000000     0.724030000000    -0.0369252  
C391     C      0.298070000000     0.239910000000     0.705740000000     0.0326927  
C392     C      0.284170000000     0.215270000000     0.697090000000    -0.0735082  
C393     C      0.295190000000     0.202740000000     0.683840000000     0.0301125  
C394     C      0.320390000000     0.214540000000     0.679070000000    -0.116507   
C395     C      0.334260000000     0.239310000000     0.687120000000     0.0301701  
C396     C      0.323200000000     0.251880000000     0.700240000000    -0.0731722  
C397     C      0.506090000000     0.498250000000     0.586210000000    -0.116906   
C398     C      0.495220000000     0.509620000000     0.603950000000     0.0307532  
C399     C      0.491820000000     0.507000000000     0.639920000000    -0.0728741  
C400     C      0.499600000000     0.493300000000     0.659130000000     0.0325598  
C401     C      0.510020000000     0.481530000000     0.641120000000    -0.0727713  
C402     C      0.513050000000     0.483820000000     0.605070000000     0.0306191  
C403     C      0.497880000000     0.492200000000     0.697820000000    -0.00113747 
C404     C      0.501480000000     0.512540000000     0.717010000000    -0.0366708  
C405     C      0.500990000000     0.512000000000     0.753300000000    -0.0373514  
C406     C      0.497250000000     0.491250000000     0.771330000000    -0.00109656 
C407     C      0.493450000000     0.470820000000     0.752390000000    -0.0376279  
C408     C      0.493550000000     0.471210000000     0.716020000000    -0.0368815  
C409     C      0.498310000000     0.491430000000     0.809800000000     0.0328795  
C410     C      0.485490000000     0.499940000000     0.829360000000    -0.0736921  
C411     C      0.487930000000     0.501850000000     0.865500000000     0.0306217  
C412     C      0.503550000000     0.495650000000     0.882750000000    -0.116878   
C413     C      0.515940000000     0.486610000000     0.863210000000     0.0308082  
C414     C      0.513200000000     0.484340000000     0.827100000000    -0.0735289  
C415     C      0.531040000000     0.525960000000     0.086510000000    -0.116523   
C416     C      0.553090000000     0.530430000000     0.101220000000     0.0302391  
C417     C      0.556740000000     0.533250000000     0.137170000000    -0.0731219  
C418     C      0.538350000000     0.531490000000     0.159270000000     0.0325266  
C419     C      0.516500000000     0.527520000000     0.144400000000    -0.0729193  
C420     C      0.512930000000     0.524890000000     0.108480000000     0.0302858  
C421     C      0.541440000000     0.532710000000     0.197730000000    -0.000966   
C422     C      0.553220000000     0.521700000000     0.214170000000    -0.0369308  
C423     C      0.554560000000     0.521280000000     0.250410000000    -0.0370872  
C424     C      0.544020000000     0.531710000000     0.271170000000    -0.00101073 
C425     C      0.532830000000     0.543310000000     0.254700000000    -0.0368573  
C426     C      0.531650000000     0.543890000000     0.218460000000    -0.0371424  
C427     C      0.543530000000     0.529430000000     0.309740000000     0.0325857  
C428     C      0.539620000000     0.507800000000     0.325410000000    -0.072978   
C429     C      0.537340000000     0.504900000000     0.361460000000     0.0303232  
C430     C      0.538710000000     0.523460000000     0.382740000000    -0.11653    
C431     C      0.543290000000     0.545340000000     0.367230000000     0.0302933  
C432     C      0.545770000000     0.548320000000     0.331170000000    -0.0731223  
C433     C      0.872190000000     0.188870000000     0.049860000000    -0.116694   
C434     C      0.877390000000     0.210980000000     0.034500000000     0.0303597  
C435     C      0.880210000000     0.214130000000     0.998500000000    -0.0732223  
C436     C      0.877740000000     0.195190000000     0.976980000000     0.0325721  
C437     C      0.873150000000     0.173290000000     0.992490000000    -0.0729905  
C438     C      0.870500000000     0.170200000000     0.028490000000     0.0303509  
C439     C      0.878800000000     0.197760000000     0.938450000000    -0.00101962 
C440     C      0.868170000000     0.209800000000     0.921680000000    -0.0369349  
C441     C      0.867590000000     0.210730000000     0.885420000000    -0.0371353  
C442     C      0.877480000000     0.199510000000     0.864970000000    -0.00105305 
C443     C      0.888680000000     0.188040000000     0.881740000000    -0.0368836  
C444     C      0.889400000000     0.187240000000     0.918010000000    -0.0371635  
C445     C      0.875060000000     0.198690000000     0.826430000000     0.0325676  
C446     C      0.893750000000     0.200460000000     0.805010000000    -0.0732001  
C447     C      0.890670000000     0.197820000000     0.768980000000     0.0302773  
C448     C      0.868890000000     0.193520000000     0.753490000000    -0.116612   
C449     C      0.850520000000     0.192550000000     0.774760000000     0.0303108  
C450     C      0.853530000000     0.195020000000     0.810790000000    -0.0729809  
C451     C      0.839740000000     0.164180000000     0.253530000000    -0.116527   
C452     C      0.841250000000     0.182830000000     0.274740000000     0.0303663  
C453     C      0.838580000000     0.179840000000     0.310740000000    -0.0729975  
C454     C      0.834150000000     0.158050000000     0.326430000000     0.032542   
C455     C      0.831870000000     0.139110000000     0.305070000000    -0.0731202  
C456     C      0.834710000000     0.142170000000     0.269050000000     0.030237   
C457     C      0.833080000000     0.155620000000     0.364980000000    -0.00097943 
C458     C      0.843880000000     0.143810000000     0.381950000000    -0.0370442  
C459     C      0.844530000000     0.143120000000     0.418230000000    -0.0370327  
C460     C      0.834560000000     0.154350000000     0.438480000000    -0.00105786 
C461     C      0.823160000000     0.165550000000     0.421510000000    -0.0369285  
C462     C      0.822360000000     0.166100000000     0.385230000000    -0.0371154  
C463     C      0.837110000000     0.155480000000     0.477010000000     0.0325563  
C464     C      0.858740000000     0.159420000000     0.492610000000    -0.07292    
C465     C      0.861870000000     0.162150000000     0.528590000000     0.0302256  
C466     C      0.843500000000     0.161210000000     0.549870000000    -0.116608   
C467     C      0.821640000000     0.156680000000     0.534430000000     0.0303595  
C468     C      0.818440000000     0.153770000000     0.498440000000    -0.0732608  
C469     C      0.174690000000     0.337100000000     0.419710000000    -0.117272   
C470     C      0.169190000000     0.353870000000     0.434850000000     0.0307583  
C471     C      0.167470000000     0.355010000000     0.470990000000    -0.0737292  
C472     C      0.171530000000     0.339610000000     0.492610000000     0.0331134  
C473     C      0.176300000000     0.322380000000     0.477470000000    -0.0740269  
C474     C      0.177710000000     0.321030000000     0.441410000000     0.030947   
C475     C      0.172210000000     0.342360000000     0.530870000000    -0.00144819 
C476     C      0.153640000000     0.343660000000     0.548650000000    -0.0373664  
C477     C      0.154500000000     0.346130000000     0.584870000000    -0.0373499  
C478     C      0.174170000000     0.347800000000     0.603730000000    -0.00147017 
C479     C      0.192810000000     0.346740000000     0.585830000000    -0.0370373  
C480     C      0.191780000000     0.343920000000     0.549820000000    -0.0371944  
C481     C      0.175270000000     0.350150000000     0.642070000000     0.0330209  
C482     C      0.155470000000     0.334270000000     0.662670000000    -0.0735648  
C483     C      0.157500000000     0.334850000000     0.698920000000     0.0305923  
C484     C      0.179280000000     0.351540000000     0.715210000000    -0.117071   
C485     C      0.198670000000     0.368150000000     0.694550000000     0.0308225  
C486     C      0.196730000000     0.367370000000     0.658370000000    -0.0739818  
C487     C      0.204300000000     0.341230000000     0.215690000000    -0.117295   
C488     C      0.198170000000     0.319520000000     0.198270000000     0.03101    
C489     C      0.199980000000     0.319140000000     0.162120000000    -0.0740262  
C490     C      0.208340000000     0.340520000000     0.142740000000     0.0330794  
C491     C      0.215370000000     0.362390000000     0.160180000000    -0.0736112  
C492     C      0.213190000000     0.362720000000     0.196320000000     0.0309474  
C493     C      0.208410000000     0.339770000000     0.104290000000    -0.00116698 
C494     C      0.187550000000     0.323060000000     0.086320000000    -0.0373262  
C495     C      0.186940000000     0.323130000000     0.050040000000    -0.036619   
C496     C      0.207330000000     0.339700000000     0.030840000000    -0.00117226 
C497     C      0.228430000000     0.356040000000     0.049000000000    -0.0368552  
C498     C      0.228880000000     0.356210000000     0.085350000000    -0.0375803  
C499     C      0.206180000000     0.340490000000     0.992180000000     0.0327945  
C500     C      0.192250000000     0.319180000000     0.972850000000    -0.0731546  
C501     C      0.189730000000     0.320190000000     0.936880000000     0.0312406  
C502     C      0.201430000000     0.342450000000     0.919300000000    -0.117416   
C503     C      0.216010000000     0.363660000000     0.938310000000     0.0310046  
C504     C      0.218200000000     0.362720000000     0.974340000000    -0.0730139  
C505     C      0.119140000000     0.304740000000     0.289590000000    -0.115884   
C506     C      0.106560000000     0.279560000000     0.284140000000     0.0296185  
C507     C      0.082870000000     0.267920000000     0.271370000000    -0.0728356  
C508     C      0.071180000000     0.281160000000     0.263790000000     0.0322185  
C509     C      0.083610000000     0.306270000000     0.269860000000    -0.0728762  
C510     C      0.107310000000     0.317920000000     0.282560000000     0.0299256  
C511     C      0.046260000000     0.268930000000     0.249110000000    -0.000291056
C512     C      0.028610000000     0.246010000000     0.261250000000    -0.0382111  
C513     C      0.005250000000     0.234530000000     0.247310000000    -0.0344956  
C514     C      0.998960000000     0.245700000000     0.220950000000    -0.0034519  
C515     C      0.016600000000     0.268580000000     0.208770000000    -0.0354644  
C516     C      0.039970000000     0.280040000000     0.222650000000    -0.0377947  
C517     C      0.974010000000     0.233630000000     0.206480000000     0.0332041  
C518     C      0.961660000000     0.208670000000     0.199370000000    -0.073328   
C519     C      0.937980000000     0.197220000000     0.186570000000     0.0299342  
C520     C      0.926060000000     0.210460000000     0.180720000000    -0.116      
C521     C      0.938530000000     0.235490000000     0.187430000000     0.0299743  
C522     C      0.962230000000     0.246930000000     0.200120000000    -0.0734094  
C523     C      0.259700000000     0.373930000000     0.345860000000    -0.115972   
C524     C      0.272060000000     0.399130000000     0.351070000000     0.0298496  
C525     C      0.295670000000     0.411030000000     0.364050000000    -0.0731286  
C526     C      0.307560000000     0.398050000000     0.372030000000     0.0323155  
C527     C      0.295410000000     0.372930000000     0.366160000000    -0.0728973  
C528     C      0.271740000000     0.360990000000     0.353290000000     0.0295667  
C529     C      0.332380000000     0.410650000000     0.386950000000    -0.000996524
C530     C      0.338610000000     0.428360000000     0.412840000000    -0.0373017  
C531     C      0.361950000000     0.440360000000     0.426810000000    -0.0370624  
C532     C      0.379660000000     0.434990000000     0.415180000000    -0.00114889 
C533     C      0.373370000000     0.417170000000     0.389420000000    -0.0369006  
C534     C      0.349990000000     0.405110000000     0.375510000000    -0.0373428  
C535     C      0.404670000000     0.448190000000     0.429510000000     0.032403   
C536     C      0.416010000000     0.473190000000     0.436100000000    -0.0729354  
C537     C      0.439690000000     0.485740000000     0.448810000000     0.0297005  
C538     C      0.452660000000     0.473600000000     0.455180000000    -0.115847   
C539     C      0.441240000000     0.448540000000     0.448970000000     0.0297462  
C540     C      0.417530000000     0.435980000000     0.436310000000    -0.0729155  
C541     C      0.538870000000     0.016090000000     0.882900000000    -0.11646    
C542     C      0.544030000000     0.999180000000     0.867440000000     0.0301404  
C543     C      0.546650000000     0.998830000000     0.831390000000    -0.073148   
C544     C      0.543990000000     0.015250000000     0.809930000000     0.0325603  
C545     C      0.539470000000     0.032570000000     0.825550000000    -0.0729948  
C546     C      0.537040000000     0.033040000000     0.861590000000     0.0302667  
C547     C      0.544670000000     0.013610000000     0.771360000000    -0.000960871
C548     C      0.533990000000     0.990920000000     0.754800000000    -0.036993   
C549     C      0.532900000000     0.989280000000     0.718550000000    -0.037107   
C550     C      0.542290000000     0.010260000000     0.697900000000    -0.000963945
C551     C      0.553600000000     0.032970000000     0.714440000000    -0.0369334  
C552     C      0.554850000000     0.034620000000     0.750690000000    -0.037103   
C553     C      0.539220000000     0.008480000000     0.659440000000     0.0325303  
C554     C      0.517540000000     0.990380000000     0.644540000000    -0.0729294  
C555     C      0.513940000000     0.989490000000     0.608630000000     0.0301615  
C556     C      0.531840000000     0.006810000000     0.586700000000    -0.116336   
C557     C      0.553720000000     0.024610000000     0.601440000000     0.0300958  
C558     C      0.557400000000     0.025380000000     0.637380000000    -0.0730112  
C559     C      0.503880000000     0.009210000000     0.382960000000    -0.116678   
C560     C      0.515930000000     0.030610000000     0.363280000000     0.0305898  
C561     C      0.513190000000     0.029990000000     0.327150000000    -0.0733129  
C562     C      0.498670000000     0.007930000000     0.309990000000     0.0328349  
C563     C      0.486190000000     0.986630000000     0.329690000000    -0.0736906  
C564     C      0.488610000000     0.987280000000     0.365830000000     0.0304451  
C565     C      0.497640000000     0.006920000000     0.271530000000    -0.00105071 
C566     C      0.493220000000     0.023090000000     0.252370000000    -0.0376379  
C567     C      0.493270000000     0.022650000000     0.216010000000    -0.0368035  
C568     C      0.498170000000     0.006320000000     0.198020000000    -0.00114871 
C569     C      0.502410000000     0.990040000000     0.217440000000    -0.0366962  
C570     C      0.501960000000     0.990230000000     0.253720000000    -0.0373865  
C571     C      0.499810000000     0.006790000000     0.159320000000     0.032664   
C572     C      0.509560000000     0.028840000000     0.141040000000    -0.0728841  
C573     C      0.512500000000     0.029480000000     0.104990000000     0.0307323  
C574     C      0.506130000000     0.008170000000     0.086380000000    -0.116917   
C575     C      0.495940000000     0.986070000000     0.104390000000     0.0308008  
C576     C      0.492610000000     0.985360000000     0.140370000000    -0.07299    
C577     C      0.592690000000     0.047000000000     0.014110000000    -0.116167   
C578     C      0.605070000000     0.072160000000     0.019690000000     0.0298735  
C579     C      0.628720000000     0.083950000000     0.032610000000    -0.0730385  
C580     C      0.640580000000     0.070880000000     0.040200000000     0.0325198  
C581     C      0.628340000000     0.045780000000     0.034080000000    -0.0729833  
C582     C      0.604680000000     0.033990000000     0.021210000000     0.0300538  
C583     C      0.665500000000     0.083290000000     0.054890000000    -0.00107699 
C584     C      0.683020000000     0.106250000000     0.042720000000    -0.0370388  
C585     C      0.706400000000     0.117900000000     0.056620000000    -0.037183   
C586     C      0.712820000000     0.106850000000     0.082980000000    -0.000987337
C587     C      0.695300000000     0.083930000000     0.095220000000    -0.0371433  
C588     C      0.671910000000     0.072310000000     0.081380000000    -0.0369656  
C589     C      0.737810000000     0.119040000000     0.097310000000     0.0325065  
C590     C      0.750100000000     0.144020000000     0.104300000000    -0.0729924  
C591     C      0.773830000000     0.155570000000     0.116950000000     0.0298007  
C592     C      0.785840000000     0.142410000000     0.122790000000    -0.115942   
C593     C      0.773420000000     0.117370000000     0.116200000000     0.0299394  
C594     C      0.749680000000     0.105820000000     0.103660000000    -0.0729874  
C595     C      0.204630000000     0.854230000000     0.715890000000    -0.117044   
C596     C      0.209910000000     0.876070000000     0.699520000000     0.0306207  
C597     C      0.211510000000     0.878090000000     0.663270000000    -0.0735876  
C598     C      0.207560000000     0.858210000000     0.642780000000     0.0330665  
C599     C      0.203130000000     0.836680000000     0.659170000000    -0.0740555  
C600     C      0.201820000000     0.834750000000     0.695340000000     0.030807   
C601     C      0.206420000000     0.859290000000     0.604430000000    -0.00146231 
C602     C      0.224560000000     0.878820000000     0.585610000000    -0.0373486  
C603     C      0.223070000000     0.879640000000     0.549360000000    -0.0373425  
C604     C      0.203190000000     0.861180000000     0.531520000000    -0.00150161 
C605     C      0.185040000000     0.841760000000     0.550430000000    -0.0371073  
C606     C      0.186710000000     0.840750000000     0.586470000000    -0.0371072  
C607     C      0.201200000000     0.861840000000     0.493240000000     0.0331592  
C608     C      0.220530000000     0.865490000000     0.471750000000    -0.0737772  
C609     C      0.217700000000     0.863730000000     0.435610000000     0.0307607  
C610     C      0.195590000000     0.858620000000     0.420340000000    -0.117324   
C611     C      0.176640000000     0.856010000000     0.441900000000     0.0310613  
C612     C      0.179370000000     0.857450000000     0.477960000000    -0.0741044  
C613     C      0.173100000000     0.832260000000     0.919820000000    -0.117443   
C614     C      0.179450000000     0.817400000000     0.938780000000     0.03126    
C615     C      0.176430000000     0.815250000000     0.974810000000    -0.0732029  
C616     C      0.166610000000     0.827620000000     0.992710000000     0.0328804  
C617     C      0.159480000000     0.841830000000     0.973450000000    -0.0730699  
C618     C      0.162890000000     0.844300000000     0.937470000000     0.031054   
C619     C      0.164820000000     0.826520000000     0.031380000000    -0.00118104 
C620     C      0.159820000000     0.805310000000     0.049530000000    -0.0367888  
C621     C      0.159700000000     0.804890000000     0.085880000000    -0.0375868  
C622     C      0.164140000000     0.825510000000     0.104830000000    -0.00113994 
C623     C      0.168530000000     0.846490000000     0.086870000000    -0.0373265  
C624     C      0.169050000000     0.847070000000     0.050590000000    -0.0366167  
C625     C      0.165080000000     0.825580000000     0.143260000000     0.0330482  
C626     C      0.179720000000     0.818220000000     0.160640000000    -0.0735519  
C627     C      0.182320000000     0.820350000000     0.196770000000     0.0309708  
C628     C      0.169990000000     0.829520000000     0.216200000000    -0.117481   
C629     C      0.154620000000     0.836000000000     0.198850000000     0.0311057  
C630     C      0.152350000000     0.834240000000     0.162710000000    -0.0740341  
C631     C      0.452620000000     0.977320000000     0.955370000000    -0.115974   
C632     C      0.440370000000     0.952160000000     0.949840000000     0.0298799  
C633     C      0.416720000000     0.940230000000     0.936960000000    -0.0731285  
C634     C      0.404720000000     0.953160000000     0.929380000000     0.0324579  
C635     C      0.416810000000     0.978260000000     0.935440000000    -0.0728944  
C636     C      0.440500000000     0.990210000000     0.948240000000     0.029713   
C637     C      0.379810000000     0.940550000000     0.914780000000    -0.00108006 
C638     C      0.373360000000     0.922840000000     0.888840000000    -0.0371409  
C639     C      0.349970000000     0.911010000000     0.875010000000    -0.0371748  
C640     C      0.332450000000     0.916590000000     0.886820000000    -0.000998884
C641     C      0.338910000000     0.934320000000     0.912760000000    -0.0371141  
C642     C      0.362320000000     0.946180000000     0.926540000000    -0.0370919  
C643     C      0.307470000000     0.903830000000     0.872380000000     0.0324155  
C644     C      0.295690000000     0.878820000000     0.865620000000    -0.072892   
C645     C      0.271980000000     0.866710000000     0.852950000000     0.0296852  
C646     C      0.259450000000     0.879320000000     0.846780000000    -0.115968   
C647     C      0.271350000000     0.904390000000     0.853060000000     0.0299643  
C648     C      0.295070000000     0.916500000000     0.865690000000    -0.07298    
C649     C      0.840380000000     0.678900000000     0.754900000000    -0.116775   
C650     C      0.831420000000     0.657580000000     0.774710000000     0.0305611  
C651     C      0.829130000000     0.658230000000     0.810800000000    -0.073377   
C652     C      0.836110000000     0.680260000000     0.827790000000     0.0328206  
C653     C      0.844560000000     0.701460000000     0.807950000000    -0.0738091  
C654     C      0.846490000000     0.700760000000     0.771850000000     0.0306131  
C655     C      0.835850000000     0.681360000000     0.866230000000    -0.00112359 
C656     C      0.815310000000     0.665090000000     0.885200000000    -0.0375975  
C657     C      0.815530000000     0.665740000000     0.921560000000    -0.0368684  
C658     C      0.836470000000     0.682420000000     0.939740000000    -0.00116037 
C659     C      0.856950000000     0.698770000000     0.920490000000    -0.0366743  
C660     C      0.856560000000     0.698360000000     0.884200000000    -0.0373335  
C661     C      0.837370000000     0.682220000000     0.978490000000     0.0326053  
C662     C      0.825280000000     0.660280000000     0.997030000000    -0.0728688  
C663     C      0.827400000000     0.659900000000     0.033160000000     0.030671   
C664     C      0.841970000000     0.681390000000     0.051590000000    -0.116865   
C665     C      0.853650000000     0.703390000000     0.033320000000     0.0308159  
C666     C      0.851190000000     0.703830000000     0.997250000000    -0.0729117  
C667     C      0.867370000000     0.674060000000     0.255110000000    -0.116342   
C668     C      0.889490000000     0.690890000000     0.270410000000     0.0300422  
C669     C      0.892730000000     0.691060000000     0.306390000000    -0.0730018  
C670     C      0.873880000000     0.674550000000     0.327950000000     0.0324251  
C671     C      0.851980000000     0.657350000000     0.312470000000    -0.0727638  
C672     C      0.848800000000     0.657040000000     0.276500000000     0.0301787  
C673     C      0.876490000000     0.675970000000     0.366500000000    -0.000955811
C674     C      0.865810000000     0.654840000000     0.386940000000    -0.0371783  
C675     C      0.866440000000     0.656300000000     0.423220000000    -0.0369236  
C676     C      0.877920000000     0.678930000000     0.440000000000    -0.00101505 
C677     C      0.889420000000     0.700010000000     0.419550000000    -0.0371274  
C678     C      0.888620000000     0.698560000000     0.383290000000    -0.0369341  
C679     C      0.876740000000     0.680540000000     0.478500000000     0.0324686  
C680     C      0.878020000000     0.663470000000     0.500330000000    -0.0729979  
C681     C      0.875180000000     0.664090000000     0.536310000000     0.0299372  
C682     C      0.871140000000     0.681890000000     0.551300000000    -0.116368   
C683     C      0.870560000000     0.699360000000     0.529600000000     0.030264   
C684     C      0.873220000000     0.698630000000     0.493670000000    -0.0729647  
C685     C      0.785360000000     0.646340000000     0.624230000000    -0.115878   
C686     C      0.772770000000     0.621150000000     0.618840000000     0.029748   
C687     C      0.749210000000     0.609550000000     0.605650000000    -0.0730424  
C688     C      0.737620000000     0.622800000000     0.597630000000     0.0324349  
C689     C      0.749990000000     0.647900000000     0.603690000000    -0.0728808  
C690     C      0.773620000000     0.659550000000     0.616760000000     0.0297236  
C691     C      0.712870000000     0.610480000000     0.582500000000    -0.00101327 
C692     C      0.706600000000     0.592910000000     0.556400000000    -0.0371877  
C693     C      0.683290000000     0.581110000000     0.542310000000    -0.0370585  
C694     C      0.665640000000     0.586520000000     0.554050000000    -0.00103985 
C695     C      0.671980000000     0.604250000000     0.579980000000    -0.0369322  
C696     C      0.695340000000     0.616130000000     0.593990000000    -0.03721    
C697     C      0.640620000000     0.573440000000     0.539710000000     0.0323966  
C698     C      0.629270000000     0.548470000000     0.532800000000    -0.0728513  
C699     C      0.605590000000     0.536010000000     0.520070000000     0.0297589  
C700     C      0.592630000000     0.548180000000     0.514020000000    -0.115855   
C701     C      0.604050000000     0.573200000000     0.520570000000     0.0298336  
C702     C      0.627760000000     0.585680000000     0.533230000000    -0.0728257  
C703     C      0.925690000000     0.713680000000     0.681620000000    -0.116162   
C704     C      0.938610000000     0.738890000000     0.686730000000     0.029807   
C705     C      0.962300000000     0.750290000000     0.699500000000    -0.0735124  
C706     C      0.973660000000     0.736770000000     0.707330000000     0.0331752  
C707     C      0.960900000000     0.711640000000     0.701640000000    -0.0733906  
C708     C      0.937190000000     0.700220000000     0.689000000000     0.0301153  
C709     C      0.998570000000     0.748800000000     0.721910000000    -0.00344217 
C710     C      0.005480000000     0.766640000000     0.747750000000    -0.0345447  
C711     C      0.028870000000     0.777930000000     0.761580000000    -0.038249   
C712     C      0.045950000000     0.771710000000     0.749820000000    -0.000207709
C713     C      0.039000000000     0.753800000000     0.724040000000    -0.0378203  
C714     C      0.015580000000     0.742460000000     0.710290000000    -0.0354276  
C715     C      0.071010000000     0.784130000000     0.764000000000     0.0320481  
C716     C      0.083170000000     0.809170000000     0.770530000000    -0.0726353  
C717     C      0.106900000000     0.821000000000     0.783050000000     0.0296998  
C718     C      0.119120000000     0.808100000000     0.789300000000    -0.115676   
C719     C      0.106900000000     0.783010000000     0.783180000000     0.0295679  
C720     C      0.083120000000     0.771160000000     0.770690000000    -0.0726641  
H1       H      0.784980000000     0.104790000000     0.682700000000     0.0337896  
H2       H      0.763680000000     0.063340000000     0.704270000000     0.0475709  
H3       H      0.830720000000     0.061880000000     0.704360000000     0.0475026  
H4       H      0.851960000000     0.103150000000     0.682040000000     0.0337503  
H5       H      0.760740000000     0.041190000000     0.756930000000     0.0382061  
H6       H      0.739810000000     0.000290000000     0.780780000000     0.0382597  
H7       H      0.780370000000     0.979990000000     0.712240000000     0.0381204  
H8       H      0.801200000000     0.020840000000     0.688210000000     0.037944   
H9       H      0.710240000000     0.958790000000     0.763270000000     0.0476954  
H10      H      0.689210000000     0.917500000000     0.785720000000     0.0338896  
H11      H      0.756920000000     0.917290000000     0.788480000000     0.0338162  
H12      H      0.777910000000     0.958660000000     0.766530000000     0.0475452  
H13      H      0.860090000000     0.251300000000     0.620370000000     0.0338545  
H14      H      0.881030000000     0.292470000000     0.597620000000     0.0475706  
H15      H      0.948320000000     0.291560000000     0.597410000000     0.0475822  
H16      H      0.927490000000     0.250450000000     0.620580000000     0.0336145  
H17      H      0.900600000000     0.312720000000     0.542770000000     0.0381915  
H18      H      0.920860000000     0.353320000000     0.517950000000     0.0377499  
H19      H      0.980520000000     0.374300000000     0.589180000000     0.0379094  
H20      H      0.960320000000     0.333560000000     0.613730000000     0.0381046  
H21      H      0.931280000000     0.393940000000     0.533420000000     0.0474755  
H22      H      0.950800000000     0.435100000000     0.511050000000     0.0334883  
H23      H      0.020170000000     0.438460000000     0.515640000000     0.0334762  
H24      H      0.000480000000     0.396960000000     0.537270000000     0.0486501  
H25      H      0.018750000000     0.582150000000     0.451190000000     0.0340477  
H26      H      0.038280000000     0.623760000000     0.430070000000     0.0476588  
H27      H      0.107480000000     0.626720000000     0.431820000000     0.0472584  
H28      H      0.088130000000     0.585430000000     0.453710000000     0.033577   
H29      H      0.057810000000     0.646840000000     0.378300000000     0.0382109  
H30      H      0.077870000000     0.687780000000     0.354400000000     0.0382663  
H31      H      0.138120000000     0.707990000000     0.424070000000     0.0381915  
H32      H      0.118020000000     0.667210000000     0.448250000000     0.0378445  
H33      H      0.090280000000     0.729860000000     0.371470000000     0.0477356  
H34      H      0.111240000000     0.771160000000     0.348860000000     0.0337672  
H35      H      0.178270000000     0.769600000000     0.346890000000     0.0339203  
H36      H      0.157230000000     0.728320000000     0.369080000000     0.0476516  
H37      H      0.615520000000     0.770600000000     0.848540000000     0.0336077  
H38      H      0.594770000000     0.729270000000     0.870780000000     0.0474874  
H39      H      0.662500000000     0.729230000000     0.872440000000     0.0478342  
H40      H      0.683270000000     0.770450000000     0.849780000000     0.0339675  
H41      H      0.593160000000     0.708230000000     0.925310000000     0.0381457  
H42      H      0.572750000000     0.667500000000     0.949770000000     0.037922   
H43      H      0.612100000000     0.646840000000     0.879340000000     0.0381687  
H44      H      0.632650000000     0.687650000000     0.855130000000     0.0382192  
H45      H      0.542980000000     0.626560000000     0.934330000000     0.0473042  
H46      H      0.521900000000     0.585320000000     0.956640000000     0.0335954  
H47      H      0.588590000000     0.583190000000     0.953140000000     0.0338242  
H48      H      0.609790000000     0.624670000000     0.931610000000     0.0475994  
H49      H      0.349940000000     0.104450000000     0.183690000000     0.033928   
H50      H      0.329630000000     0.063340000000     0.206990000000     0.047817   
H51      H      0.261290000000     0.062100000000     0.203810000000     0.0474782  
H52      H      0.281520000000     0.103210000000     0.180980000000     0.0337412  
H53      H      0.300160000000     0.021330000000     0.190230000000     0.0382543  
H54      H      0.279440000000     0.980530000000     0.214540000000     0.0381739  
H55      H      0.239280000000     0.001140000000     0.283470000000     0.0379759  
H56      H      0.259840000000     0.041830000000     0.258920000000     0.0381985  
H57      H      0.276320000000     0.958160000000     0.266920000000     0.0477097  
H58      H      0.254740000000     0.916630000000     0.288210000000     0.0339403  
H59      H      0.188130000000     0.918990000000     0.289580000000     0.033613   
H60      H      0.209630000000     0.960290000000     0.267510000000     0.0474145  
H61      H      0.445670000000     0.437850000000     0.015550000000     0.0338475  
H62      H      0.424420000000     0.396250000000     0.036680000000     0.0476614  
H63      H      0.491360000000     0.394600000000     0.034770000000     0.047392   
H64      H      0.512490000000     0.435940000000     0.012890000000     0.0337893  
H65      H      0.421780000000     0.373720000000     0.088780000000     0.0381991  
H66      H      0.401490000000     0.332840000000     0.112820000000     0.0382444  
H67      H      0.441680000000     0.313000000000     0.042830000000     0.0381492  
H68      H      0.461820000000     0.353780000000     0.018570000000     0.0379328  
H69      H      0.372130000000     0.290930000000     0.095830000000     0.047923   
H70      H      0.352090000000     0.249750000000     0.118730000000     0.0340885  
H71      H      0.420620000000     0.251190000000     0.119930000000     0.0336208  
H72      H      0.440610000000     0.292420000000     0.097480000000     0.0474699  
H73      H      0.712200000000     0.820330000000     0.716840000000     0.0333491  
H74      H      0.712340000000     0.814790000000     0.654170000000     0.0472641  
H75      H      0.652860000000     0.828720000000     0.643250000000     0.0476685  
H76      H      0.652190000000     0.833400000000     0.705840000000     0.033871   
H77      H      0.723380000000     0.839050000000     0.603060000000     0.0378682  
H78      H      0.725900000000     0.839770000000     0.539980000000     0.0377473  
H79      H      0.647880000000     0.803540000000     0.533430000000     0.0379372  
H80      H      0.645320000000     0.801470000000     0.596560000000     0.0378245  
H81      H      0.657830000000     0.789500000000     0.481890000000     0.0473822  
H82      H      0.658800000000     0.795720000000     0.419210000000     0.0334319  
H83      H      0.721370000000     0.866950000000     0.431360000000     0.0338842  
H84      H      0.719920000000     0.861080000000     0.493870000000     0.0475984  
H85      H      0.651160000000     0.845450000000     0.924930000000     0.0327395  
H86      H      0.651820000000     0.849630000000     0.987770000000     0.0471593  
H87      H      0.729660000000     0.881250000000     0.987210000000     0.0473245  
H88      H      0.728700000000     0.875790000000     0.924460000000     0.0324948  
H89      H      0.661950000000     0.875140000000     0.035900000000     0.037532   
H90      H      0.660740000000     0.874170000000     0.099370000000     0.038386   
H91      H      0.719350000000     0.858690000000     0.101250000000     0.0388696  
H92      H      0.719940000000     0.858430000000     0.038040000000     0.0379652  
H93      H      0.650270000000     0.840040000000     0.145710000000     0.0481087  
H94      H      0.649030000000     0.835010000000     0.208890000000     0.0328116  
H95      H      0.726070000000     0.884760000000     0.213970000000     0.0332283  
H96      H      0.727230000000     0.889470000000     0.150880000000     0.0480993  
H97      H      0.783430000000     0.679760000000     0.184860000000     0.0338396  
H98      H      0.762650000000     0.700250000000     0.207520000000     0.0478747  
H99      H      0.829890000000     0.768310000000     0.206090000000     0.0475705  
H100     H      0.850780000000     0.747870000000     0.183890000000     0.0337944  
H101     H      0.750590000000     0.730010000000     0.190200000000     0.0382887  
H102     H      0.730240000000     0.750580000000     0.214120000000     0.0382144  
H103     H      0.790040000000     0.790100000000     0.284750000000     0.0379108  
H104     H      0.810440000000     0.769660000000     0.260600000000     0.0381995  
H105     H      0.710400000000     0.753020000000     0.266310000000     0.0477107  
H106     H      0.690060000000     0.774290000000     0.287460000000     0.0339459  
H107     H      0.758630000000     0.841080000000     0.290630000000     0.0335497  
H108     H      0.778840000000     0.819900000000     0.268710000000     0.0473546  
H109     H      0.589890000000     0.008290000000     0.453560000000     0.0339024  
H110     H      0.611510000000     0.988730000000     0.430630000000     0.0477967  
H111     H      0.545470000000     0.919590000000     0.433360000000     0.0475497  
H112     H      0.523740000000     0.939100000000     0.455900000000     0.033566   
H113     H      0.624870000000     0.959780000000     0.447600000000     0.0382651  
H114     H      0.645920000000     0.940090000000     0.423000000000     0.0382068  
H115     H      0.585880000000     0.899500000000     0.353170000000     0.0377608  
H116     H      0.564780000000     0.919000000000     0.378060000000     0.038005   
H117     H      0.665780000000     0.937800000000     0.370760000000     0.0476199  
H118     H      0.686510000000     0.916970000000     0.349270000000     0.0337077  
H119     H      0.618380000000     0.849700000000     0.346540000000     0.0337919  
H120     H      0.597840000000     0.870390000000     0.368800000000     0.0474026  
H121     H      0.982350000000     0.509370000000     0.589240000000     0.0325384  
H122     H      0.982620000000     0.513670000000     0.652130000000     0.0473251  
H123     H      0.060810000000     0.549460000000     0.651870000000     0.0473793  
H124     H      0.060320000000     0.543950000000     0.589220000000     0.0324651  
H125     H      0.991480000000     0.539160000000     0.700400000000     0.0369481  
H126     H      0.990510000000     0.538440000000     0.763910000000     0.0377916  
H127     H      0.051690000000     0.526900000000     0.765650000000     0.0388387  
H128     H      0.052140000000     0.526490000000     0.702480000000     0.0379634  
H129     H      0.981780000000     0.505460000000     0.810540000000     0.0481421  
H130     H      0.980950000000     0.500440000000     0.873650000000     0.0329783  
H131     H      0.057560000000     0.552020000000     0.878240000000     0.0333448  
H132     H      0.058310000000     0.556790000000     0.815190000000     0.0480995  
H133     H      0.980070000000     0.481460000000     0.373340000000     0.0329232  
H134     H      0.981360000000     0.477700000000     0.310190000000     0.0481179  
H135     H      0.058180000000     0.504250000000     0.315670000000     0.0481138  
H136     H      0.056970000000     0.507820000000     0.378700000000     0.0334024  
H137     H      0.991300000000     0.454100000000     0.263590000000     0.0378027  
H138     H      0.992830000000     0.454600000000     0.200110000000     0.03695    
H139     H      0.052000000000     0.528550000000     0.203010000000     0.0379397  
H140     H      0.051030000000     0.527440000000     0.266180000000     0.0388541  
H141     H      0.983700000000     0.470760000000     0.151560000000     0.0467088  
H142     H      0.983810000000     0.474800000000     0.088660000000     0.0320546  
H143     H      0.061580000000     0.520060000000     0.089900000000     0.032431   
H144     H      0.061730000000     0.515040000000     0.152630000000     0.0472945  
H145     H      0.019530000000     0.583160000000     0.014900000000     0.0336605  
H146     H      0.999190000000     0.604210000000     0.036980000000     0.0479097  
H147     H      0.930800000000     0.537270000000     0.034140000000     0.0474672  
H148     H      0.950990000000     0.516350000000     0.011310000000     0.0333695  
H149     H      0.979420000000     0.606130000000     0.089640000000     0.0381321  
H150     H      0.958930000000     0.626230000000     0.114710000000     0.0381749  
H151     H      0.898900000000     0.586990000000     0.044450000000     0.0381537  
H152     H      0.919450000000     0.567050000000     0.019140000000     0.0378565  
H153     H      0.946610000000     0.655970000000     0.098280000000     0.0478453  
H154     H      0.925740000000     0.676170000000     0.121620000000     0.033858   
H155     H      0.858570000000     0.607880000000     0.122510000000     0.0335739  
H156     H      0.879570000000     0.587710000000     0.099590000000     0.0475887  
H157     H      0.312800000000     0.136780000000     0.753970000000     0.0330958  
H158     H      0.310800000000     0.131680000000     0.817050000000     0.0479863  
H159     H      0.388080000000     0.178980000000     0.823900000000     0.0481601  
H160     H      0.390170000000     0.184370000000     0.760800000000     0.0329547  
H161     H      0.318850000000     0.161960000000     0.866960000000     0.0388038  
H162     H      0.317950000000     0.162420000000     0.930170000000     0.0379014  
H163     H      0.374980000000     0.144370000000     0.933590000000     0.0374921  
H164     H      0.376480000000     0.145080000000     0.870140000000     0.0384268  
H165     H      0.307770000000     0.139880000000     0.981410000000     0.0472402  
H166     H      0.308700000000     0.145630000000     0.044110000000     0.0327028  
H167     H      0.386090000000     0.174880000000     0.044050000000     0.0329544  
H168     H      0.385460000000     0.170360000000     0.981270000000     0.047129   
H169     H      0.316330000000     0.178980000000     0.257960000000     0.032842   
H170     H      0.317330000000     0.183380000000     0.320830000000     0.047192   
H171     H      0.395130000000     0.214810000000     0.319450000000     0.0471959  
H172     H      0.393850000000     0.209200000000     0.256730000000     0.0326556  
H173     H      0.327910000000     0.209150000000     0.368930000000     0.0375291  
H174     H      0.326930000000     0.208150000000     0.432400000000     0.0383644  
H175     H      0.385110000000     0.192020000000     0.433520000000     0.0387704  
H176     H      0.385520000000     0.191890000000     0.370300000000     0.0378725  
H177     H      0.315970000000     0.174250000000     0.478060000000     0.0481373  
H178     H      0.314340000000     0.168510000000     0.541040000000     0.033092   
H179     H      0.391720000000     0.216220000000     0.547050000000     0.0330289  
H180     H      0.393280000000     0.221710000000     0.484040000000     0.0478325  
H181     H      0.351370000000     0.103710000000     0.618000000000     0.0339097  
H182     H      0.370860000000     0.082020000000     0.594860000000     0.0478425  
H183     H      0.440260000000     0.147620000000     0.600080000000     0.0475665  
H184     H      0.420890000000     0.169380000000     0.622850000000     0.0335966  
H185     H      0.399670000000     0.068180000000     0.612060000000     0.0382406  
H186     H      0.420000000000     0.047620000000     0.587820000000     0.0381286  
H187     H      0.461130000000     0.108460000000     0.519430000000     0.0378314  
H188     H      0.441050000000     0.129060000000     0.544020000000     0.0380485  
H189     H      0.423660000000     0.028370000000     0.535880000000     0.0475085  
H190     H      0.445400000000     0.008430000000     0.514890000000     0.0337661  
H191     H      0.511950000000     0.077260000000     0.514150000000     0.0338431  
H192     H      0.490370000000     0.097020000000     0.535950000000     0.0473251  
H193     H      0.022320000000     0.440470000000     0.950090000000     0.0340089  
H194     H      0.042960000000     0.419490000000     0.928740000000     0.0477487  
H195     H      0.111270000000     0.486440000000     0.933040000000     0.0473498  
H196     H      0.090810000000     0.507270000000     0.955100000000     0.033641   
H197     H      0.063530000000     0.417680000000     0.876790000000     0.0382425  
H198     H      0.084540000000     0.397820000000     0.852630000000     0.0382252  
H199     H      0.143480000000     0.436970000000     0.924620000000     0.0381381  
H200     H      0.122430000000     0.456670000000     0.948990000000     0.0379267  
H201     H      0.096850000000     0.368180000000     0.869540000000     0.0478666  
H202     H      0.118250000000     0.348310000000     0.847040000000     0.03391    
H203     H      0.185230000000     0.416770000000     0.848210000000     0.0335917  
H204     H      0.163700000000     0.436630000000     0.870280000000     0.0475381  
H205     H      0.194310000000     0.277590000000     0.786490000000     0.0339441  
H206     H      0.215360000000     0.257360000000     0.764420000000     0.0474749  
H207     H      0.282940000000     0.325130000000     0.766930000000     0.0476502  
H208     H      0.261760000000     0.345570000000     0.788260000000     0.0337383  
H209     H      0.243900000000     0.244910000000     0.781210000000     0.0378839  
H210     H      0.263570000000     0.223950000000     0.756450000000     0.0380945  
H211     H      0.306290000000     0.285290000000     0.689790000000     0.0382532  
H212     H      0.286430000000     0.306230000000     0.714280000000     0.0380413  
H213     H      0.264720000000     0.205650000000     0.700540000000     0.0475414  
H214     H      0.283930000000     0.183690000000     0.677850000000     0.0335789  
H215     H      0.353710000000     0.248960000000     0.683780000000     0.0339822  
H216     H      0.334420000000     0.270820000000     0.706880000000     0.0478948  
H217     H      0.489430000000     0.520650000000     0.590060000000     0.0325865  
H218     H      0.483200000000     0.515880000000     0.652660000000     0.047189   
H219     H      0.516620000000     0.471150000000     0.654930000000     0.0472531  
H220     H      0.521640000000     0.474970000000     0.592170000000     0.0328965  
H221     H      0.505390000000     0.529210000000     0.704110000000     0.037922   
H222     H      0.504320000000     0.528120000000     0.767310000000     0.0388252  
H223     H      0.490320000000     0.454530000000     0.765730000000     0.0384403  
H224     H      0.490250000000     0.455040000000     0.702240000000     0.0376022  
H225     H      0.473770000000     0.505370000000     0.816620000000     0.0480287  
H226     H      0.478160000000     0.508930000000     0.879770000000     0.0331927  
H227     H      0.528050000000     0.481610000000     0.875750000000     0.0328972  
H228     H      0.523400000000     0.477870000000     0.812580000000     0.0482127  
H229     H      0.567500000000     0.531530000000     0.085020000000     0.0334159  
H230     H      0.573940000000     0.536700000000     0.147630000000     0.0474376  
H231     H      0.501770000000     0.525670000000     0.160580000000     0.0475383  
H232     H      0.495670000000     0.521340000000     0.098060000000     0.0337612  
H233     H      0.560780000000     0.512710000000     0.199100000000     0.037936   
H234     H      0.563640000000     0.512510000000     0.262150000000     0.0377825  
H235     H      0.524290000000     0.551340000000     0.269770000000     0.0379332  
H236     H      0.522780000000     0.552870000000     0.206720000000     0.037816   
H237     H      0.537440000000     0.492720000000     0.309770000000     0.0476082  
H238     H      0.533720000000     0.487770000000     0.372510000000     0.0337102  
H239     H      0.544640000000     0.560080000000     0.382900000000     0.0334003  
H240     H      0.549230000000     0.565380000000     0.320090000000     0.0474358  
H241     H      0.878990000000     0.225800000000     0.050230000000     0.0333798  
H242     H      0.884170000000     0.231380000000     0.987510000000     0.0473608  
H243     H      0.870770000000     0.158170000000     0.976750000000     0.0476703  
H244     H      0.866400000000     0.152890000000     0.039420000000     0.0337843  
H245     H      0.859610000000     0.217910000000     0.936520000000     0.0378809  
H246     H      0.859130000000     0.220030000000     0.873410000000     0.0377526  
H247     H      0.896280000000     0.178990000000     0.866890000000     0.0379432  
H248     H      0.898050000000     0.178130000000     0.930020000000     0.0378313  
H249     H      0.910730000000     0.203700000000     0.816090000000     0.0473436  
H250     H      0.905270000000     0.198840000000     0.753320000000     0.033357   
H251     H      0.833470000000     0.189160000000     0.763740000000     0.0337379  
H252     H      0.838600000000     0.193210000000     0.826440000000     0.0475749  
H253     H      0.845210000000     0.200070000000     0.263690000000     0.0337989  
H254     H      0.840820000000     0.194960000000     0.326350000000     0.0476113  
H255     H      0.828050000000     0.121940000000     0.316200000000     0.0473657  
H256     H      0.833260000000     0.127360000000     0.253440000000     0.0334229  
H257     H      0.852520000000     0.135730000000     0.367260000000     0.0379212  
H258     H      0.853130000000     0.134000000000     0.430400000000     0.0377055  
H259     H      0.815480000000     0.174590000000     0.436190000000     0.0378784  
H260     H      0.813570000000     0.175030000000     0.373060000000     0.0377736  
H261     H      0.873660000000     0.161210000000     0.476940000000     0.0475426  
H262     H      0.878990000000     0.165720000000     0.539580000000     0.0337725  
H263     H      0.807040000000     0.155660000000     0.550100000000     0.0333555  
H264     H      0.801390000000     0.150340000000     0.487400000000     0.0473994  
H265     H      0.166670000000     0.366450000000     0.418850000000     0.0331419  
H266     H      0.163860000000     0.368520000000     0.482060000000     0.0482031  
H267     H      0.179250000000     0.310130000000     0.493590000000     0.0483228  
H268     H      0.181950000000     0.307880000000     0.430640000000     0.0336658  
H269     H      0.138340000000     0.342440000000     0.534600000000     0.0383956  
H270     H      0.139940000000     0.346950000000     0.598110000000     0.0383018  
H271     H      0.208060000000     0.347740000000     0.599780000000     0.0387747  
H272     H      0.206440000000     0.343210000000     0.536700000000     0.0388309  
H273     H      0.138750000000     0.320760000000     0.650710000000     0.0481504  
H274     H      0.142190000000     0.321870000000     0.714100000000     0.0332055  
H275     H      0.215700000000     0.381260000000     0.706210000000     0.0336653  
H276     H      0.212170000000     0.379980000000     0.643050000000     0.0481863  
H277     H      0.191210000000     0.302640000000     0.212430000000     0.0331559  
H278     H      0.194590000000     0.302080000000     0.149240000000     0.0482221  
H279     H      0.221740000000     0.379100000000     0.145760000000     0.0482332  
H280     H      0.218120000000     0.379740000000     0.209010000000     0.0327945  
H281     H      0.171410000000     0.310410000000     0.100370000000     0.0389521  
H282     H      0.170190000000     0.310620000000     0.037170000000     0.0379956  
H283     H      0.244640000000     0.368750000000     0.035190000000     0.0375895  
H284     H      0.245260000000     0.369140000000     0.098680000000     0.038399   
H285     H      0.183160000000     0.301670000000     0.985480000000     0.0473883  
H286     H      0.178570000000     0.303500000000     0.922860000000     0.0324871  
H287     H      0.225120000000     0.381130000000     0.925530000000     0.0328149  
H288     H      0.228740000000     0.379580000000     0.988250000000     0.0472371  
H289     H      0.115140000000     0.268850000000     0.289150000000     0.033683   
H290     H      0.073930000000     0.248610000000     0.266660000000     0.0473623  
H291     H      0.075010000000     0.316950000000     0.264870000000     0.0477304  
H292     H      0.116390000000     0.337310000000     0.286590000000     0.0340516  
H293     H      0.032740000000     0.237090000000     0.281930000000     0.0384033  
H294     H      0.991970000000     0.217060000000     0.257630000000     0.0370884  
H295     H      0.012430000000     0.277510000000     0.188150000000     0.0380777  
H296     H      0.053230000000     0.297490000000     0.212250000000     0.0384923  
H297     H      0.970350000000     0.197960000000     0.203560000000     0.0474605  
H298     H      0.928950000000     0.177930000000     0.181650000000     0.0338308  
H299     H      0.929900000000     0.246250000000     0.183290000000     0.033765   
H300     H      0.971150000000     0.266140000000     0.205660000000     0.0476433  
H301     H      0.263400000000     0.409700000000     0.345570000000     0.0339546  
H302     H      0.304660000000     0.430450000000     0.367770000000     0.0475334  
H303     H      0.304000000000     0.362380000000     0.372310000000     0.0475457  
H304     H      0.262770000000     0.341570000000     0.349630000000     0.0337719  
H305     H      0.325340000000     0.432750000000     0.422660000000     0.0381626  
H306     H      0.366040000000     0.453680000000     0.447030000000     0.0378395  
H307     H      0.386660000000     0.412840000000     0.379480000000     0.0380986  
H308     H      0.345840000000     0.391770000000     0.355320000000     0.0382338  
H309     H      0.406780000000     0.483230000000     0.430730000000     0.0473684  
H310     H      0.447940000000     0.505050000000     0.453140000000     0.0338564  
H311     H      0.450650000000     0.438590000000     0.453680000000     0.0339189  
H312     H      0.409220000000     0.416670000000     0.432020000000     0.0475713  
H313     H      0.545730000000     0.985980000000     0.883130000000     0.0333636  
H314     H      0.550560000000     0.985530000000     0.820340000000     0.0473568  
H315     H      0.536950000000     0.045270000000     0.809890000000     0.0476414  
H316     H      0.532970000000     0.046250000000     0.872590000000     0.0337842  
H317     H      0.525750000000     0.974330000000     0.769800000000     0.0379019  
H318     H      0.524410000000     0.971490000000     0.706730000000     0.0377665  
H319     H      0.560850000000     0.049530000000     0.699450000000     0.0379139  
H320     H      0.563540000000     0.052410000000     0.762510000000     0.037749   
H321     H      0.502970000000     0.977280000000     0.660690000000     0.0475754  
H322     H      0.496820000000     0.975600000000     0.598190000000     0.0338773  
H323     H      0.567960000000     0.038120000000     0.585270000000     0.033396   
H324     H      0.574470000000     0.039330000000     0.647870000000     0.0473321  
H325     H      0.527770000000     0.047780000000     0.375730000000     0.0329532  
H326     H      0.523120000000     0.046650000000     0.312510000000     0.0481897  
H327     H      0.474760000000     0.969410000000     0.317050000000     0.0479412  
H328     H      0.479120000000     0.970470000000     0.380210000000     0.0331562  
H329     H      0.489640000000     0.036000000000     0.265540000000     0.0384497  
H330     H      0.489470000000     0.035150000000     0.202060000000     0.0375631  
H331     H      0.506770000000     0.977550000000     0.204720000000     0.0378499  
H332     H      0.505760000000     0.977800000000     0.267910000000     0.0387527  
H333     H      0.515700000000     0.045790000000     0.154630000000     0.0472957  
H334     H      0.520570000000     0.046830000000     0.091870000000     0.0328773  
H335     H      0.490630000000     0.969300000000     0.090690000000     0.0325121  
H336     H      0.484510000000     0.967960000000     0.153320000000     0.0471973  
H337     H      0.596370000000     0.082760000000     0.014630000000     0.0336494  
H338     H      0.637510000000     0.103250000000     0.037370000000     0.0473866  
H339     H      0.637080000000     0.035220000000     0.039100000000     0.0476055  
H340     H      0.595750000000     0.014610000000     0.017090000000     0.03392    
H341     H      0.678790000000     0.115080000000     0.022010000000     0.0379277  
H342     H      0.719580000000     0.135380000000     0.046240000000     0.0381715  
H343     H      0.699570000000     0.075080000000     0.115860000000     0.0382572  
H344     H      0.658750000000     0.054830000000     0.091810000000     0.0382466  
H345     H      0.741350000000     0.154660000000     0.100110000000     0.0475356  
H346     H      0.782820000000     0.174870000000     0.121780000000     0.0338525  
H347     H      0.782100000000     0.106660000000     0.120340000000     0.0339323  
H348     H      0.740810000000     0.086600000000     0.098210000000     0.0477201  
H349     H      0.212270000000     0.891440000000     0.714620000000     0.0332543  
H350     H      0.214860000000     0.894860000000     0.651220000000     0.0482239  
H351     H      0.200260000000     0.821180000000     0.643930000000     0.0482049  
H352     H      0.197760000000     0.817670000000     0.707070000000     0.0336946  
H353     H      0.239970000000     0.893290000000     0.598900000000     0.0382993  
H354     H      0.237260000000     0.894820000000     0.535320000000     0.038384   
H355     H      0.169640000000     0.827180000000     0.537260000000     0.03883    
H356     H      0.172360000000     0.825620000000     0.600390000000     0.0388398  
H357     H      0.237510000000     0.868800000000     0.482950000000     0.0481919  
H358     H      0.232680000000     0.865930000000     0.419700000000     0.0330879  
H359     H      0.159370000000     0.852070000000     0.431030000000     0.0337336  
H360     H      0.164280000000     0.854810000000     0.493990000000     0.0484282  
H361     H      0.187540000000     0.808020000000     0.925940000000     0.0329366  
H362     H      0.182550000000     0.804490000000     0.988660000000     0.047433   
H363     H      0.151350000000     0.851200000000     0.986140000000     0.04732    
H364     H      0.157600000000     0.855690000000     0.923490000000     0.0324982  
H365     H      0.156000000000     0.788980000000     0.035720000000     0.0376476  
H366     H      0.156060000000     0.788420000000     0.099200000000     0.0384861  
H367     H      0.172320000000     0.862740000000     0.100930000000     0.0389077  
H368     H      0.173480000000     0.863900000000     0.037720000000     0.0379308  
H369     H      0.189830000000     0.811610000000     0.146150000000     0.0482537  
H370     H      0.194230000000     0.815140000000     0.209410000000     0.0327935  
H371     H      0.144930000000     0.843190000000     0.213050000000     0.0331709  
H372     H      0.140840000000     0.839890000000     0.149880000000     0.0482287  
H373     H      0.449110000000     0.941630000000     0.955110000000     0.0338237  
H374     H      0.407790000000     0.920830000000     0.933060000000     0.0474867  
H375     H      0.408160000000     0.988790000000     0.929550000000     0.0476171  
H376     H      0.449390000000     0.009610000000     0.952120000000     0.0339059  
H377     H      0.386520000000     0.918370000000     0.878810000000     0.0381403  
H378     H      0.345720000000     0.897730000000     0.854690000000     0.0379685  
H379     H      0.325760000000     0.938770000000     0.922870000000     0.0382875  
H380     H      0.366610000000     0.959500000000     0.946830000000     0.0381857  
H381     H      0.304600000000     0.868450000000     0.870860000000     0.0473526  
H382     H      0.263360000000     0.847380000000     0.848530000000     0.0336913  
H383     H      0.262300000000     0.914710000000     0.848480000000     0.0340256  
H384     H      0.303730000000     0.935830000000     0.870070000000     0.04764    
H385     H      0.826500000000     0.640450000000     0.762400000000     0.0328907  
H386     H      0.822690000000     0.641650000000     0.825560000000     0.048172   
H387     H      0.849910000000     0.718640000000     0.820440000000     0.0479942  
H388     H      0.853500000000     0.717520000000     0.757380000000     0.0331799  
H389     H      0.799030000000     0.651940000000     0.871890000000     0.0383863  
H390     H      0.799250000000     0.653160000000     0.935350000000     0.0375235  
H391     H      0.873590000000     0.711520000000     0.933370000000     0.0379052  
H392     H      0.872760000000     0.710900000000     0.870160000000     0.038769   
H393     H      0.814800000000     0.643210000000     0.983600000000     0.0471731  
H394     H      0.818320000000     0.642620000000     0.046470000000     0.032817   
H395     H      0.864810000000     0.720280000000     0.046880000000     0.0325138  
H396     H      0.860310000000     0.721150000000     0.984090000000     0.0472273  
H397     H      0.904240000000     0.704130000000     0.254640000000     0.0332991  
H398     H      0.909990000000     0.704290000000     0.317310000000     0.0472234  
H399     H      0.836900000000     0.644580000000     0.328220000000     0.0475557  
H400     H      0.831490000000     0.643890000000     0.265620000000     0.0338701  
H401     H      0.856640000000     0.637120000000     0.374940000000     0.037769   
H402     H      0.857210000000     0.639670000000     0.438050000000     0.0378548  
H403     H      0.898770000000     0.717730000000     0.431550000000     0.0377395  
H404     H      0.896870000000     0.715240000000     0.368480000000     0.0378282  
H405     H      0.881090000000     0.649520000000     0.489610000000     0.0472806  
H406     H      0.875880000000     0.650450000000     0.552290000000     0.0333339  
H407     H      0.867370000000     0.713260000000     0.540220000000     0.0339717  
H408     H      0.871730000000     0.711840000000     0.477720000000     0.0476242  
H409     H      0.781200000000     0.610370000000     0.624370000000     0.0339093  
H410     H      0.740040000000     0.590130000000     0.601780000000     0.0474857  
H411     H      0.741620000000     0.658650000000     0.597530000000     0.0477103  
H412     H      0.782780000000     0.678970000000     0.620550000000     0.0338166  
H413     H      0.719820000000     0.588460000000     0.546540000000     0.0382294  
H414     H      0.679180000000     0.567880000000     0.521950000000     0.0379427  
H415     H      0.658740000000     0.608620000000     0.590000000000     0.0381662  
H416     H      0.699530000000     0.629390000000     0.614330000000     0.0382411  
H417     H      0.638490000000     0.538380000000     0.537930000000     0.0472905  
H418     H      0.597350000000     0.516730000000     0.515490000000     0.0337661  
H419     H      0.594630000000     0.583180000000     0.516100000000     0.033882   
H420     H      0.636070000000     0.604970000000     0.537770000000     0.0475821  
H421     H      0.930350000000     0.749840000000     0.681280000000     0.0335292  
H422     H      0.971750000000     0.769730000000     0.703140000000     0.0474453  
H423     H      0.969060000000     0.700680000000     0.707720000000     0.0476855  
H424     H      0.927780000000     0.680770000000     0.685420000000     0.0339052  
H425     H      0.992680000000     0.771640000000     0.757700000000     0.036969   
H426     H      0.033480000000     0.791350000000     0.781790000000     0.0383591  
H427     H      0.051810000000     0.748850000000     0.713990000000     0.0383316  
H428     H      0.010910000000     0.729000000000     0.690100000000     0.0380015  
H429     H      0.074520000000     0.819790000000     0.765240000000     0.047363   
H430     H      0.115770000000     0.840360000000     0.787320000000     0.0340974  
H431     H      0.115730000000     0.772480000000     0.787800000000     0.033871   
H432     H      0.074180000000     0.751800000000     0.766440000000     0.0475849  
Ni1      Ni     0.854480000000     0.660980000000     0.655890000000     0.991952   
Ni2      Ni     0.856520000000     0.699260000000     0.650290000000     0.99401    
Ni3      Ni     0.189810000000     0.825140000000     0.816670000000     0.994405   
Ni4      Ni     0.188780000000     0.862030000000     0.819390000000     0.993607   
Ni5      Ni     0.522210000000     0.993310000000     0.986720000000     0.993587   
Ni6      Ni     0.523100000000     0.031130000000     0.982750000000     0.993082   
Ni7      Ni     0.188790000000     0.320240000000     0.320140000000     0.994359   
Ni8      Ni     0.190080000000     0.358210000000     0.315160000000     0.993984   
Ni9      Ni     0.856020000000     0.157830000000     0.149630000000     0.993386   
Ni10     Ni     0.855910000000     0.195140000000     0.153750000000     0.993454   
Ni11     Ni     0.523880000000     0.492880000000     0.482790000000     0.993411   
Ni12     Ni     0.521410000000     0.528980000000     0.486380000000     0.992996   
Ni13     Ni     0.208280000000     0.366230000000     0.816060000000     0.995148   
Ni14     Ni     0.171720000000     0.328140000000     0.818840000000     0.995148   
Ni15     Ni     0.371820000000     0.193980000000     0.654140000000     0.99412    
Ni16     Ni     0.333000000000     0.158760000000     0.647180000000     0.993439   
Ni17     Ni     0.039940000000     0.529880000000     0.985450000000     0.99581    
Ni18     Ni     0.001740000000     0.493680000000     0.979940000000     0.993589   
Ni19     Ni     0.707550000000     0.863810000000     0.321190000000     0.995389   
Ni20     Ni     0.669480000000     0.827490000000     0.315490000000     0.993491   
Ni21     Ni     0.872870000000     0.696840000000     0.151320000000     0.99413    
Ni22     Ni     0.836320000000     0.658830000000     0.155390000000     0.994418   
Ni23     Ni     0.535640000000     0.027450000000     0.482080000000     0.993561   
Ni24     Ni     0.499820000000     0.988950000000     0.487660000000     0.994078   
Ni25     Ni     0.332010000000     0.176240000000     0.148760000000     0.993375   
Ni26     Ni     0.370240000000     0.178020000000     0.152690000000     0.993358   
Ni27     Ni     0.499070000000     0.511620000000     0.987410000000     0.994595   
Ni28     Ni     0.535300000000     0.509570000000     0.981890000000     0.993633   
Ni29     Ni     0.164810000000     0.845110000000     0.320650000000     0.995724   
Ni30     Ni     0.201060000000     0.843040000000     0.315790000000     0.993819   
Ni31     Ni     0.000170000000     0.508760000000     0.480050000000     0.992694   
Ni32     Ni     0.038880000000     0.511760000000     0.485510000000     0.995402   
Ni33     Ni     0.837950000000     0.178210000000     0.653680000000     0.994379   
Ni34     Ni     0.874530000000     0.176720000000     0.649620000000     0.992911   
Ni35     Ni     0.667300000000     0.843580000000     0.815990000000     0.994105   
Ni36     Ni     0.705000000000     0.844290000000     0.820180000000     0.993872   
O1       O      0.863080000000     0.663540000000     0.607650000000    -0.437728   
O2       O      0.846000000000     0.660990000000     0.703760000000    -0.437352   
O3       O      0.821060000000     0.646240000000     0.643000000000    -0.438745   
O4       O      0.888050000000     0.678240000000     0.668370000000    -0.438418   
O5       O      0.890070000000     0.714010000000     0.662730000000    -0.438129   
O6       O      0.822810000000     0.681930000000     0.638230000000    -0.437564   
O7       O      0.848380000000     0.696960000000     0.698560000000    -0.439668   
O8       O      0.864590000000     0.699100000000     0.602390000000    -0.43943    
O9       O      0.181550000000     0.820720000000     0.864970000000    -0.439885   
O10      O      0.198020000000     0.831960000000     0.768550000000    -0.439916   
O11      O      0.223390000000     0.843490000000     0.829080000000    -0.437959   
O12      O      0.156140000000     0.809250000000     0.804460000000    -0.437436   
O13      O      0.155370000000     0.843820000000     0.806390000000    -0.438843   
O14      O      0.222280000000     0.877850000000     0.832190000000    -0.438492   
O15      O      0.197580000000     0.866680000000     0.771170000000    -0.438337   
O16      O      0.179980000000     0.854870000000     0.867400000000    -0.438333   
O17      O      0.531220000000     0.997020000000     0.938610000000    -0.438492   
O18      O      0.513200000000     0.992080000000     0.034550000000    -0.438436   
O19      O      0.488840000000     0.977980000000     0.973390000000    -0.439061   
O20      O      0.555670000000     0.011150000000     0.999780000000    -0.438517   
O21      O      0.556620000000     0.046490000000     0.995460000000    -0.438251   
O22      O      0.489500000000     0.013230000000     0.970310000000    -0.437868   
O23      O      0.514660000000     0.027710000000     0.031030000000    -0.438795   
O24      O      0.531530000000     0.032070000000     0.934730000000    -0.438866   
O25      O      0.180920000000     0.320100000000     0.368180000000    -0.439913   
O26      O      0.196720000000     0.322860000000     0.271760000000    -0.43969    
O27      O      0.222540000000     0.338020000000     0.331850000000    -0.437721   
O28      O      0.155150000000     0.305020000000     0.308070000000    -0.438127   
O29      O      0.156480000000     0.340500000000     0.302920000000    -0.43867    
O30      O      0.223570000000     0.373410000000     0.327770000000    -0.43905    
O31      O      0.198460000000     0.358580000000     0.267200000000    -0.438298   
O32      O      0.181630000000     0.355310000000     0.363450000000    -0.438518   
O33      O      0.864610000000     0.165380000000     0.101640000000    -0.438661   
O34      O      0.847350000000     0.152720000000     0.197850000000    -0.43854    
O35      O      0.822510000000     0.142770000000     0.137100000000    -0.438757   
O36      O      0.889540000000     0.175350000000     0.162490000000    -0.438138   
O37      O      0.889420000000     0.210190000000     0.166320000000    -0.438497   
O38      O      0.822370000000     0.177600000000     0.140860000000    -0.437769   
O39      O      0.847290000000     0.187590000000     0.201700000000    -0.438907   
O40      O      0.864600000000     0.200260000000     0.105560000000    -0.439197   
O41      O      0.532190000000     0.500430000000     0.434740000000    -0.438712   
O42      O      0.515420000000     0.487730000000     0.531090000000    -0.43857    
O43      O      0.490270000000     0.476130000000     0.470320000000    -0.438084   
O44      O      0.557290000000     0.512000000000     0.495530000000    -0.43852    
O45      O      0.554890000000     0.545630000000     0.499550000000    -0.437735   
O46      O      0.488110000000     0.509940000000     0.472950000000    -0.438233   
O47      O      0.512470000000     0.521100000000     0.534200000000    -0.438479   
O48      O      0.530440000000     0.534430000000     0.438310000000    -0.43862    
O49      O      0.201430000000     0.367460000000     0.767870000000    -0.439867   
O50      O      0.212750000000     0.362500000000     0.864430000000    -0.43973    
O51      O      0.224590000000     0.348790000000     0.804080000000    -0.438241   
O52      O      0.189540000000     0.381100000000     0.828250000000    -0.439131   
O53      O      0.155490000000     0.345500000000     0.831440000000    -0.439383   
O54      O      0.190330000000     0.313310000000     0.806030000000    -0.43988    
O55      O      0.178920000000     0.326630000000     0.866890000000    -0.438509   
O56      O      0.167000000000     0.332160000000     0.770590000000    -0.438561   
O57      O      0.370700000000     0.184870000000     0.701940000000    -0.437951   
O58      O      0.370410000000     0.200690000000     0.605850000000    -0.438414   
O59      O      0.355320000000     0.211220000000     0.666120000000    -0.438453   
O60      O      0.385720000000     0.174460000000     0.641690000000    -0.440082   
O61      O      0.349520000000     0.141520000000     0.635180000000    -0.43783    
O62      O      0.319100000000     0.178310000000     0.659650000000    -0.439519   
O63      O      0.334090000000     0.167880000000     0.599410000000    -0.438246   
O64      O      0.334390000000     0.152060000000     0.695450000000    -0.438642   
O65      O      0.037430000000     0.535830000000     0.937210000000    -0.439169   
O66      O      0.040010000000     0.521470000000     0.033280000000    -0.438845   
O67      O      0.054810000000     0.511280000000     0.972780000000    -0.440228   
O68      O      0.022520000000     0.546130000000     0.997780000000    -0.438189   
O69      O      0.986880000000     0.512320000000     0.992510000000    -0.440112   
O70      O      0.019190000000     0.477410000000     0.967740000000    -0.437914   
O71      O      0.004200000000     0.487790000000     0.028260000000    -0.438223   
O72      O      0.001740000000     0.502050000000     0.932030000000    -0.437886   
O73      O      0.705360000000     0.869560000000     0.272820000000    -0.439695   
O74      O      0.707290000000     0.855660000000     0.369170000000    -0.439686   
O75      O      0.722600000000     0.845200000000     0.309170000000    -0.438973   
O76      O      0.689940000000     0.880000000000     0.332810000000    -0.438467   
O77      O      0.654450000000     0.845980000000     0.327980000000    -0.439824   
O78      O      0.687030000000     0.811360000000     0.303420000000    -0.439054   
O79      O      0.671950000000     0.821520000000     0.363810000000    -0.437999   
O80      O      0.669570000000     0.835900000000     0.267550000000    -0.437796   
O81      O      0.878340000000     0.693250000000     0.199440000000    -0.438469   
O82      O      0.864950000000     0.697910000000     0.103480000000    -0.43811    
O83      O      0.854520000000     0.711880000000     0.164620000000    -0.439527   
O84      O      0.888830000000     0.679290000000     0.138320000000    -0.439145   
O85      O      0.854780000000     0.643770000000     0.142720000000    -0.439276   
O86      O      0.820270000000     0.676450000000     0.167750000000    -0.438552   
O87      O      0.831140000000     0.662100000000     0.107090000000    -0.438973   
O88      O      0.843930000000     0.658020000000     0.203400000000    -0.439013   
O89      O      0.541760000000     0.025050000000     0.530330000000    -0.438427   
O90      O      0.527130000000     0.027290000000     0.434190000000    -0.438029   
O91      O      0.516570000000     0.041840000000     0.494770000000    -0.439462   
O92      O      0.552360000000     0.010510000000     0.469780000000    -0.438767   
O93      O      0.518990000000     0.974550000000     0.475480000000    -0.439006   
O94      O      0.483010000000     0.005930000000     0.499410000000    -0.43837    
O95      O      0.493960000000     0.991090000000     0.439290000000    -0.439151   
O96      O      0.508070000000     0.989310000000     0.535660000000    -0.43902    
O97      O      0.331050000000     0.167500000000     0.100830000000    -0.437722   
O98      O      0.335450000000     0.184950000000     0.197000000000    -0.438045   
O99      O      0.349300000000     0.209810000000     0.135940000000    -0.437967   
O100     O      0.317280000000     0.142880000000     0.161840000000    -0.439808   
O101     O      0.352920000000     0.144440000000     0.165600000000    -0.437331   
O102     O      0.384960000000     0.211400000000     0.139540000000    -0.43922    
O103     O      0.371250000000     0.186820000000     0.200550000000    -0.438457   
O104     O      0.366800000000     0.169270000000     0.104510000000    -0.438673   
O105     O      0.507200000000     0.519470000000     0.035430000000    -0.439147   
O106     O      0.493370000000     0.503680000000     0.939010000000    -0.439014   
O107     O      0.482760000000     0.477870000000     0.999110000000    -0.438505   
O108     O      0.517770000000     0.545200000000     0.975300000000    -0.43925    
O109     O      0.551510000000     0.543210000000     0.969620000000    -0.438668   
O110     O      0.516680000000     0.476090000000     0.994550000000    -0.439156   
O111     O      0.526920000000     0.501230000000     0.934010000000    -0.43827    
O112     O      0.541270000000     0.518040000000     0.030140000000    -0.438544   
O113     O      0.172550000000     0.852810000000     0.368720000000    -0.440364   
O114     O      0.159460000000     0.837300000000     0.272260000000    -0.440562   
O115     O      0.148380000000     0.811310000000     0.332230000000    -0.438029   
O116     O      0.183670000000     0.878750000000     0.308740000000    -0.438586   
O117     O      0.217420000000     0.876690000000     0.303700000000    -0.438858   
O118     O      0.182340000000     0.809550000000     0.328250000000    -0.439362   
O119     O      0.193020000000     0.834840000000     0.267770000000    -0.4383     
O120     O      0.206650000000     0.851370000000     0.364130000000    -0.438351   
O121     O      0.000400000000     0.500540000000     0.432120000000    -0.437372   
O122     O      0.002490000000     0.517060000000     0.528380000000    -0.437742   
O123     O      0.016840000000     0.542440000000     0.467770000000    -0.437716   
O124     O      0.986100000000     0.475360000000     0.492690000000    -0.439749   
O125     O      0.022200000000     0.478110000000     0.498040000000    -0.437169   
O126     O      0.052940000000     0.545140000000     0.472630000000    -0.439264   
O127     O      0.038790000000     0.520200000000     0.533260000000    -0.439426   
O128     O      0.036520000000     0.503310000000     0.437350000000    -0.439642   
O129     O      0.845670000000     0.186750000000     0.701640000000    -0.438793   
O130     O      0.832610000000     0.169500000000     0.605490000000    -0.438888   
O131     O      0.821940000000     0.144670000000     0.666290000000    -0.439322   
O132     O      0.856380000000     0.211680000000     0.640720000000    -0.438582   
O133     O      0.890540000000     0.210290000000     0.636980000000    -0.438609   
O134     O      0.856070000000     0.143230000000     0.662550000000    -0.438081   
O135     O      0.866810000000     0.168180000000     0.601660000000    -0.43885    
O136     O      0.879860000000     0.185410000000     0.697810000000    -0.438872   
O137     O      0.670630000000     0.852000000000     0.864270000000    -0.438971   
O138     O      0.666410000000     0.835140000000     0.768010000000    -0.439154   
O139     O      0.651810000000     0.810050000000     0.828690000000    -0.438872   
O140     O      0.685330000000     0.877200000000     0.803600000000    -0.438123   
O141     O      0.720470000000     0.877690000000     0.806880000000    -0.439236   
O142     O      0.687040000000     0.810820000000     0.833180000000    -0.438602   
O143     O      0.701350000000     0.835280000000     0.772070000000    -0.438507   
O144     O      0.706160000000     0.853280000000     0.868000000000    -0.43799    


