data_structure

_audit_creation_method RASPA-1.0
_audit_creation_date 2023-5-19
_audit_author_name 'Poobodin Mano'

_cell_length_a    42.0282
_cell_length_b    41.6675
_cell_length_c    42.2098
_cell_angle_alpha 90
_cell_angle_beta  90
_cell_angle_gamma 90
_cell_volume      73918.2

_symmetry_cell_setting          triclinic
_symmetry_space_group_name_Hall 'P 1'
_symmetry_space_group_name_H-M  'P 1'
_symmetry_Int_Tables_number     1

_symmetry_equiv_pos_as_xyz 'x,y,z'

loop_
_atom_site_label
_atom_site_type_symbol
_atom_site_fract_x
_atom_site_fract_y
_atom_site_fract_z
_atom_site_charge
C1       C      0.994420000000     0.052070000000     0.241600000000     0.428243   
C2       C      0.507750000000     0.431020000000     0.231030000000     0.432162   
C3       C      0.061060000000     0.998480000000     0.237460000000     0.429745   
C4       C      0.440450000000     0.987050000000     0.236220000000     0.429981   
C5       C      0.995090000000     0.183800000000     0.253230000000     0.435998   
C6       C      0.995020000000     0.305970000000     0.251950000000     0.432503   
C7       C      0.497580000000     0.244070000000     0.191840000000     0.426195   
C8       C      0.492210000000     0.243490000000     0.312440000000     0.430944   
C9       C      0.309370000000     0.993750000000     0.241360000000     0.427698   
C10      C      0.189400000000     0.010310000000     0.248050000000     0.430742   
C11      C      0.247390000000     0.496030000000     0.185210000000     0.430329   
C12      C      0.251450000000     0.508460000000     0.305240000000     0.429674   
C13      C      0.237480000000     0.075160000000     0.003760000000     0.427177   
C14      C      0.241950000000     0.453720000000     0.490100000000     0.431427   
C15      C      0.238360000000     0.007330000000     0.056720000000     0.431202   
C16      C      0.241160000000     0.020200000000     0.436680000000     0.428474   
C17      C      0.000340000000     0.251040000000     0.061520000000     0.424706   
C18      C      0.501560000000     0.251220000000     0.441060000000     0.427236   
C19      C      0.061320000000     0.256390000000     0.001120000000     0.427059   
C20      C      0.440860000000     0.244810000000     0.002100000000     0.432158   
C21      C      0.254230000000     0.202330000000     0.492620000000     0.430248   
C22      C      0.256370000000     0.324290000000     0.497810000000     0.428216   
C23      C      0.194260000000     0.264170000000     0.997890000000     0.428131   
C24      C      0.315330000000     0.262860000000     0.993220000000     0.428343   
C25      C      0.365870000000     0.249490000000     0.465790000000    -0.0122678  
C26      C      0.366160000000     0.278110000000     0.018460000000    -0.0230049  
C27      C      0.391030000000     0.225840000000     0.478480000000    -0.0094214  
C28      C      0.389830000000     0.253590000000     0.031080000000     0.0326062  
C29      C      0.142730000000     0.279810000000     0.474670000000    -0.0107427  
C30      C      0.145690000000     0.247810000000     0.525990000000    -0.0222405  
C31      C      0.109020000000     0.287550000000     0.986640000000    -0.00787385 
C32      C      0.113530000000     0.233800000000     0.015380000000     0.0323863  
C33      C      0.241140000000     0.375050000000     0.023670000000    -0.0107206  
C34      C      0.278930000000     0.374910000000     0.477360000000    -0.0214097  
C35      C      0.221880000000     0.401770000000     0.007810000000    -0.011149   
C36      C      0.260810000000     0.403240000000     0.462670000000     0.0304518  
C37      C      0.212670000000     0.127840000000     0.492510000000    -0.0116683  
C38      C      0.261060000000     0.123910000000     0.027280000000    -0.0207136  
C39      C      0.229710000000     0.153160000000     0.472010000000    -0.0107352  
C40      C      0.278200000000     0.148450000000     0.006450000000     0.0308564  
C41      C      0.269600000000     0.035320000000     0.387870000000    -0.0105539  
C42      C      0.217000000000     0.505150000000     0.385760000000    -0.0223216  
C43      C      0.262390000000     0.041220000000     0.352630000000    -0.00881936 
C44      C      0.231220000000     0.488770000000     0.356260000000     0.0325447  
C45      C      0.273420000000     0.010390000000     0.135210000000    -0.00690283 
C46      C      0.230110000000     0.469010000000     0.135960000000    -0.021003   
C47      C      0.258150000000     0.026840000000     0.106980000000    -0.0105803  
C48      C      0.214190000000     0.485280000000     0.107010000000     0.0312668  
C49      C      0.987050000000     0.276950000000     0.390270000000    -0.00400683 
C50      C      0.023610000000     0.228950000000     0.391520000000    -0.0211535  
C51      C      0.468950000000     0.261970000000     0.362380000000    -0.00991123 
C52      C      0.505580000000     0.214580000000     0.363360000000     0.0312376  
C53      C      0.029640000000     0.246110000000     0.142650000000    -0.0142166  
C54      C      0.471420000000     0.230760000000     0.141030000000    -0.0227305  
C55      C      0.025220000000     0.264780000000     0.111690000000    -0.0106485  
C56      C      0.467850000000     0.249770000000     0.110210000000     0.0295733  
C57      C      0.139310000000     0.995740000000     0.274370000000    -0.00874013 
C58      C      0.140080000000     0.039060000000     0.233320000000    -0.0210496  
C59      C      0.111430000000     0.479510000000     0.258050000000    -0.0111576  
C60      C      0.111510000000     0.023250000000     0.216140000000     0.030677   
C61      C      0.357410000000     0.459370000000     0.244220000000    -0.0106585  
C62      C      0.358150000000     0.011540000000     0.214520000000    -0.0196441  
C63      C      0.390450000000     0.467020000000     0.257780000000    -0.0100634  
C64      C      0.391090000000     0.019180000000     0.227980000000     0.0287243  
C65      C      0.471380000000     0.357010000000     0.233290000000    -0.0116132  
C66      C      0.019980000000     0.357100000000     0.268330000000    -0.0257471  
C67      C      0.488280000000     0.380010000000     0.210220000000    -0.010931   
C68      C      0.036460000000     0.379790000000     0.245030000000     0.0357335  
C69      C      0.000010000000     0.105370000000     0.217410000000    -0.0173851  
C70      C      0.470860000000     0.098680000000     0.269180000000    -0.0217701  
C71      C      0.016480000000     0.135060000000     0.230410000000    -0.00935583 
C72      C      0.484190000000     0.131340000000     0.280330000000     0.0295486  
C73      C      0.994420000000     0.052070000000     0.741600000000     0.427954   
C74      C      0.507750000000     0.431020000000     0.731030000000     0.432127   
C75      C      0.061060000000     0.998480000000     0.737470000000     0.429723   
C76      C      0.440450000000     0.987050000000     0.736220000000     0.429944   
C77      C      0.995090000000     0.183800000000     0.753230000000     0.435996   
C78      C      0.995020000000     0.305970000000     0.751950000000     0.432551   
C79      C      0.497580000000     0.244070000000     0.691840000000     0.426193   
C80      C      0.492210000000     0.243490000000     0.812440000000     0.430944   
C81      C      0.309370000000     0.993750000000     0.741360000000     0.427718   
C82      C      0.189400000000     0.010310000000     0.748050000000     0.430723   
C83      C      0.247390000000     0.496030000000     0.685210000000     0.430329   
C84      C      0.251450000000     0.508460000000     0.805240000000     0.429674   
C85      C      0.237480000000     0.075160000000     0.503760000000     0.427831   
C86      C      0.241950000000     0.453720000000     0.990100000000     0.43155    
C87      C      0.238360000000     0.007330000000     0.556720000000     0.431061   
C88      C      0.241160000000     0.020200000000     0.936680000000     0.428541   
C89      C      0.000340000000     0.251040000000     0.561520000000     0.424772   
C90      C      0.501560000000     0.251220000000     0.941060000000     0.42707    
C91      C      0.061320000000     0.256390000000     0.501120000000     0.427981   
C92      C      0.440860000000     0.244810000000     0.502100000000     0.433091   
C93      C      0.254230000000     0.202330000000     0.992620000000     0.431072   
C94      C      0.256370000000     0.324290000000     0.997810000000     0.42908    
C95      C      0.194260000000     0.264170000000     0.497890000000     0.427287   
C96      C      0.315330000000     0.262860000000     0.493220000000     0.427499   
C97      C      0.365870000000     0.249490000000     0.965790000000    -0.0122831  
C98      C      0.366160000000     0.278110000000     0.518460000000    -0.0225502  
C99      C      0.391030000000     0.225840000000     0.978480000000    -0.0089529  
C100     C      0.389830000000     0.253590000000     0.531080000000     0.0325603  
C101     C      0.142730000000     0.279810000000     0.974670000000    -0.0109635  
C102     C      0.145690000000     0.247810000000     0.025990000000    -0.0225739  
C103     C      0.109020000000     0.287550000000     0.486640000000    -0.00912137 
C104     C      0.113530000000     0.233800000000     0.515380000000     0.0330243  
C105     C      0.241140000000     0.375050000000     0.523670000000    -0.0105542  
C106     C      0.278930000000     0.374910000000     0.977360000000    -0.021319   
C107     C      0.221880000000     0.401770000000     0.507810000000    -0.00997666 
C108     C      0.260810000000     0.403240000000     0.962670000000     0.0303955  
C109     C      0.212670000000     0.127840000000     0.992510000000    -0.0103556  
C110     C      0.261060000000     0.123910000000     0.527280000000    -0.0209531  
C111     C      0.229710000000     0.153160000000     0.972010000000    -0.0110042  
C112     C      0.278200000000     0.148450000000     0.506450000000     0.0319177  
C113     C      0.269600000000     0.035320000000     0.887870000000    -0.0105579  
C114     C      0.217000000000     0.505150000000     0.885760000000    -0.0223248  
C115     C      0.262390000000     0.041220000000     0.852630000000    -0.00881807 
C116     C      0.231220000000     0.488770000000     0.856260000000     0.0325416  
C117     C      0.273420000000     0.010390000000     0.635210000000    -0.00692954 
C118     C      0.230110000000     0.469010000000     0.635950000000    -0.021018   
C119     C      0.258150000000     0.026840000000     0.606980000000    -0.0105897  
C120     C      0.214190000000     0.485280000000     0.607010000000     0.0312384  
C121     C      0.987050000000     0.276950000000     0.890270000000    -0.00404024 
C122     C      0.023610000000     0.228950000000     0.891520000000    -0.0211642  
C123     C      0.468950000000     0.261970000000     0.862380000000    -0.00990536 
C124     C      0.505580000000     0.214580000000     0.863360000000     0.0312311  
C125     C      0.029640000000     0.246110000000     0.642650000000    -0.0142313  
C126     C      0.471420000000     0.230760000000     0.641030000000    -0.0227318  
C127     C      0.025220000000     0.264780000000     0.611680000000    -0.0106282  
C128     C      0.467850000000     0.249770000000     0.610210000000     0.0295689  
C129     C      0.139310000000     0.995740000000     0.774370000000    -0.00871115 
C130     C      0.140080000000     0.039060000000     0.733320000000    -0.0210519  
C131     C      0.111430000000     0.479510000000     0.758050000000    -0.011168   
C132     C      0.111510000000     0.023250000000     0.716140000000     0.0306733  
C133     C      0.357410000000     0.459370000000     0.744220000000    -0.0106443  
C134     C      0.358150000000     0.011540000000     0.714520000000    -0.0196725  
C135     C      0.390450000000     0.467020000000     0.757780000000    -0.010111   
C136     C      0.391090000000     0.019180000000     0.727980000000     0.0287109  
C137     C      0.471380000000     0.357010000000     0.733290000000    -0.0116111  
C138     C      0.019980000000     0.357100000000     0.768330000000    -0.025745   
C139     C      0.488280000000     0.380010000000     0.710220000000    -0.0109364  
C140     C      0.036460000000     0.379790000000     0.745030000000     0.0357267  
C141     C      0.000010000000     0.105370000000     0.717410000000    -0.0174315  
C142     C      0.470860000000     0.098680000000     0.769180000000    -0.021787   
C143     C      0.016480000000     0.135060000000     0.730420000000    -0.0092766  
C144     C      0.484190000000     0.131340000000     0.780330000000     0.0295465  
C145     C      0.994420000000     0.552070000000     0.241600000000     0.428357   
C146     C      0.507750000000     0.931030000000     0.231030000000     0.432355   
C147     C      0.061060000000     0.498480000000     0.237460000000     0.430424   
C148     C      0.440450000000     0.487050000000     0.236220000000     0.430105   
C149     C      0.995090000000     0.683800000000     0.253230000000     0.436008   
C150     C      0.995020000000     0.805970000000     0.251950000000     0.43257    
C151     C      0.497580000000     0.744070000000     0.191840000000     0.426156   
C152     C      0.492210000000     0.743490000000     0.312440000000     0.430938   
C153     C      0.309370000000     0.493740000000     0.241360000000     0.428419   
C154     C      0.189400000000     0.510310000000     0.248050000000     0.429647   
C155     C      0.247390000000     0.996030000000     0.185210000000     0.42934    
C156     C      0.251450000000     0.008460000000     0.305240000000     0.43055    
C157     C      0.237480000000     0.575160000000     0.003760000000     0.427113   
C158     C      0.241950000000     0.953720000000     0.490100000000     0.431533   
C159     C      0.238360000000     0.507330000000     0.056720000000     0.431102   
C160     C      0.241160000000     0.520200000000     0.436680000000     0.428293   
C161     C      0.000340000000     0.751040000000     0.061520000000     0.424694   
C162     C      0.501560000000     0.751220000000     0.441060000000     0.427239   
C163     C      0.061320000000     0.756390000000     0.001120000000     0.427039   
C164     C      0.440860000000     0.744810000000     0.002100000000     0.432153   
C165     C      0.254230000000     0.702330000000     0.492620000000     0.430249   
C166     C      0.256370000000     0.824290000000     0.497810000000     0.428216   
C167     C      0.194260000000     0.764170000000     0.997890000000     0.428211   
C168     C      0.315330000000     0.762860000000     0.993220000000     0.428363   
C169     C      0.365870000000     0.749490000000     0.465790000000    -0.0122553  
C170     C      0.366160000000     0.778110000000     0.018460000000    -0.0230616  
C171     C      0.391030000000     0.725840000000     0.478480000000    -0.00944635 
C172     C      0.389830000000     0.753590000000     0.031080000000     0.0326477  
C173     C      0.142730000000     0.779810000000     0.474670000000    -0.0107384  
C174     C      0.145690000000     0.747820000000     0.525990000000    -0.0221877  
C175     C      0.109020000000     0.787550000000     0.986640000000    -0.00784141 
C176     C      0.113530000000     0.733800000000     0.015380000000     0.032359   
C177     C      0.241140000000     0.875050000000     0.023670000000    -0.0107107  
C178     C      0.278930000000     0.874910000000     0.477360000000    -0.0214207  
C179     C      0.221880000000     0.901760000000     0.007810000000    -0.0112087  
C180     C      0.260810000000     0.903240000000     0.462670000000     0.0305032  
C181     C      0.212670000000     0.627840000000     0.492510000000    -0.0116665  
C182     C      0.261060000000     0.623910000000     0.027280000000    -0.0207103  
C183     C      0.229710000000     0.653160000000     0.472010000000    -0.0107351  
C184     C      0.278200000000     0.648450000000     0.006450000000     0.0308374  
C185     C      0.269600000000     0.535320000000     0.387870000000    -0.0105891  
C186     C      0.217000000000     0.005150000000     0.385760000000    -0.020797   
C187     C      0.262390000000     0.541230000000     0.352630000000    -0.00893606 
C188     C      0.231220000000     0.988770000000     0.356260000000     0.0313853  
C189     C      0.273420000000     0.510390000000     0.135210000000    -0.00828857 
C190     C      0.230110000000     0.969010000000     0.135960000000    -0.0207678  
C191     C      0.258150000000     0.526840000000     0.106980000000    -0.0102397  
C192     C      0.214190000000     0.985280000000     0.107010000000     0.0300772  
C193     C      0.987050000000     0.776950000000     0.390270000000    -0.00399513 
C194     C      0.023610000000     0.728950000000     0.391520000000    -0.0211524  
C195     C      0.468950000000     0.761970000000     0.362380000000    -0.00991146 
C196     C      0.505580000000     0.714580000000     0.363360000000     0.0312487  
C197     C      0.029640000000     0.746110000000     0.142650000000    -0.0141841  
C198     C      0.471420000000     0.730760000000     0.141030000000    -0.022729   
C199     C      0.025220000000     0.764780000000     0.111690000000    -0.010663   
C200     C      0.467850000000     0.749770000000     0.110210000000     0.0295737  
C201     C      0.139310000000     0.495740000000     0.274370000000    -0.00756335 
C202     C      0.140080000000     0.539060000000     0.233320000000    -0.0211271  
C203     C      0.111430000000     0.979510000000     0.258050000000    -0.0113826  
C204     C      0.111510000000     0.523250000000     0.216140000000     0.0307034  
C205     C      0.357410000000     0.959370000000     0.244220000000    -0.0106861  
C206     C      0.358150000000     0.511540000000     0.214520000000    -0.0208809  
C207     C      0.390450000000     0.967020000000     0.257780000000    -0.0101127  
C208     C      0.391090000000     0.519180000000     0.227980000000     0.0285792  
C209     C      0.471380000000     0.857010000000     0.233290000000    -0.0115636  
C210     C      0.019980000000     0.857100000000     0.268330000000    -0.0257399  
C211     C      0.488280000000     0.880000000000     0.210220000000    -0.0109887  
C212     C      0.036460000000     0.879790000000     0.245030000000     0.0357296  
C213     C      0.000010000000     0.605370000000     0.217410000000    -0.0174072  
C214     C      0.470860000000     0.598680000000     0.269180000000    -0.0217638  
C215     C      0.016480000000     0.635060000000     0.230410000000    -0.00935855 
C216     C      0.484190000000     0.631340000000     0.280330000000     0.0295561  
C217     C      0.994420000000     0.552070000000     0.741600000000     0.428065   
C218     C      0.507750000000     0.931030000000     0.731030000000     0.432321   
C219     C      0.061060000000     0.498480000000     0.737470000000     0.430385   
C220     C      0.440450000000     0.487050000000     0.736220000000     0.430065   
C221     C      0.995090000000     0.683800000000     0.753230000000     0.436005   
C222     C      0.995020000000     0.805970000000     0.751950000000     0.432618   
C223     C      0.497580000000     0.744070000000     0.691840000000     0.426154   
C224     C      0.492210000000     0.743490000000     0.812440000000     0.430938   
C225     C      0.309370000000     0.493740000000     0.741360000000     0.428421   
C226     C      0.189400000000     0.510310000000     0.748050000000     0.429646   
C227     C      0.247390000000     0.996030000000     0.685210000000     0.42936    
C228     C      0.251450000000     0.008460000000     0.805240000000     0.430531   
C229     C      0.237480000000     0.575160000000     0.503760000000     0.427784   
C230     C      0.241950000000     0.953720000000     0.990100000000     0.431651   
C231     C      0.238360000000     0.507330000000     0.556720000000     0.430956   
C232     C      0.241160000000     0.520200000000     0.936680000000     0.428367   
C233     C      0.000340000000     0.751040000000     0.561520000000     0.424761   
C234     C      0.501560000000     0.751220000000     0.941060000000     0.427069   
C235     C      0.061320000000     0.756390000000     0.501120000000     0.427984   
C236     C      0.440860000000     0.744810000000     0.502100000000     0.433109   
C237     C      0.254230000000     0.702330000000     0.992620000000     0.431092   
C238     C      0.256370000000     0.824290000000     0.997810000000     0.4291     
C239     C      0.194260000000     0.764170000000     0.497890000000     0.427348   
C240     C      0.315330000000     0.762860000000     0.493220000000     0.427499   
C241     C      0.365870000000     0.749490000000     0.965790000000    -0.0122709  
C242     C      0.366160000000     0.778110000000     0.518460000000    -0.0225956  
C243     C      0.391030000000     0.725840000000     0.978480000000    -0.0089667  
C244     C      0.389830000000     0.753590000000     0.531080000000     0.0326008  
C245     C      0.142730000000     0.779810000000     0.974670000000    -0.0109649  
C246     C      0.145690000000     0.747820000000     0.025990000000    -0.0225296  
C247     C      0.109020000000     0.787550000000     0.486640000000    -0.00911962 
C248     C      0.113530000000     0.733800000000     0.515380000000     0.0330126  
C249     C      0.241140000000     0.875050000000     0.523670000000    -0.0105413  
C250     C      0.278930000000     0.874910000000     0.977360000000    -0.0213277  
C251     C      0.221880000000     0.901760000000     0.507810000000    -0.0100009  
C252     C      0.260810000000     0.903240000000     0.962670000000     0.0304451  
C253     C      0.212670000000     0.627840000000     0.992510000000    -0.0103202  
C254     C      0.261060000000     0.623910000000     0.527280000000    -0.020956   
C255     C      0.229710000000     0.653160000000     0.972010000000    -0.0110112  
C256     C      0.278200000000     0.648450000000     0.506450000000     0.0319265  
C257     C      0.269600000000     0.535320000000     0.887870000000    -0.0105909  
C258     C      0.217000000000     0.005150000000     0.885760000000    -0.0208389  
C259     C      0.262390000000     0.541230000000     0.852630000000    -0.008935   
C260     C      0.231220000000     0.988770000000     0.856260000000     0.0314114  
C261     C      0.273420000000     0.510390000000     0.635210000000    -0.00828042 
C262     C      0.230110000000     0.969010000000     0.635950000000    -0.0207889  
C263     C      0.258150000000     0.526840000000     0.606980000000    -0.0102583  
C264     C      0.214190000000     0.985280000000     0.607010000000     0.0300798  
C265     C      0.987050000000     0.776950000000     0.890270000000    -0.00402896 
C266     C      0.023610000000     0.728950000000     0.891520000000    -0.0211633  
C267     C      0.468950000000     0.761970000000     0.862380000000    -0.00990546 
C268     C      0.505580000000     0.714580000000     0.863360000000     0.031242   
C269     C      0.029640000000     0.746110000000     0.642650000000    -0.014199   
C270     C      0.471420000000     0.730760000000     0.641030000000    -0.0227303  
C271     C      0.025220000000     0.764780000000     0.611680000000    -0.0106426  
C272     C      0.467850000000     0.749770000000     0.610210000000     0.0295691  
C273     C      0.139310000000     0.495740000000     0.774370000000    -0.00756252 
C274     C      0.140080000000     0.539060000000     0.733320000000    -0.0211281  
C275     C      0.111430000000     0.979510000000     0.758050000000    -0.0113879  
C276     C      0.111510000000     0.523250000000     0.716140000000     0.0306991  
C277     C      0.357410000000     0.959370000000     0.744220000000    -0.0106711  
C278     C      0.358150000000     0.511540000000     0.714520000000    -0.0208801  
C279     C      0.390450000000     0.967020000000     0.757780000000    -0.0101592  
C280     C      0.391090000000     0.519180000000     0.727980000000     0.0285688  
C281     C      0.471380000000     0.857010000000     0.733290000000    -0.0115615  
C282     C      0.019980000000     0.857100000000     0.768330000000    -0.025738   
C283     C      0.488280000000     0.880000000000     0.710220000000    -0.0109941  
C284     C      0.036460000000     0.879790000000     0.745030000000     0.0357226  
C285     C      0.000010000000     0.605370000000     0.717410000000    -0.0174539  
C286     C      0.470860000000     0.598680000000     0.769180000000    -0.0217807  
C287     C      0.016480000000     0.635060000000     0.730420000000    -0.00927926 
C288     C      0.484190000000     0.631340000000     0.780330000000     0.0295537  
C289     C      0.494420000000     0.052070000000     0.241600000000     0.429027   
C290     C      0.007750000000     0.431020000000     0.231030000000     0.431376   
C291     C      0.561060000000     0.998480000000     0.237460000000     0.430345   
C292     C      0.940450000000     0.987050000000     0.236220000000     0.429012   
C293     C      0.495090000000     0.183800000000     0.253230000000     0.431065   
C294     C      0.495020000000     0.305970000000     0.251950000000     0.427532   
C295     C      0.997580000000     0.244070000000     0.191840000000     0.430965   
C296     C      0.992210000000     0.243490000000     0.312440000000     0.435502   
C297     C      0.809370000000     0.993750000000     0.241360000000     0.427684   
C298     C      0.689400000000     0.010310000000     0.248050000000     0.430769   
C299     C      0.747390000000     0.496030000000     0.185210000000     0.430334   
C300     C      0.751450000000     0.508460000000     0.305240000000     0.42968    
C301     C      0.737480000000     0.075160000000     0.003760000000     0.42743    
C302     C      0.741950000000     0.453720000000     0.490100000000     0.431407   
C303     C      0.738360000000     0.007330000000     0.056720000000     0.431182   
C304     C      0.741160000000     0.020200000000     0.436680000000     0.428455   
C305     C      0.500340000000     0.251040000000     0.061520000000     0.432564   
C306     C      0.001560000000     0.251220000000     0.441060000000     0.42265    
C307     C      0.561320000000     0.256390000000     0.001120000000     0.426803   
C308     C      0.940860000000     0.244810000000     0.002100000000     0.431872   
C309     C      0.754230000000     0.202330000000     0.492620000000     0.430239   
C310     C      0.756370000000     0.324290000000     0.497810000000     0.428216   
C311     C      0.694260000000     0.264170000000     0.997890000000     0.428125   
C312     C      0.815330000000     0.262860000000     0.993220000000     0.428339   
C313     C      0.865880000000     0.249490000000     0.465790000000    -0.0122778  
C314     C      0.866160000000     0.278110000000     0.018460000000    -0.0230023  
C315     C      0.891030000000     0.225840000000     0.478480000000    -0.00946898 
C316     C      0.889830000000     0.253590000000     0.031080000000     0.0325561  
C317     C      0.642730000000     0.279810000000     0.474670000000    -0.0107074  
C318     C      0.645690000000     0.247810000000     0.525990000000    -0.0222318  
C319     C      0.609020000000     0.287550000000     0.986640000000    -0.00797201 
C320     C      0.613530000000     0.233800000000     0.015380000000     0.0323247  
C321     C      0.741140000000     0.375050000000     0.023670000000    -0.0107534  
C322     C      0.778930000000     0.374910000000     0.477360000000    -0.0214176  
C323     C      0.721880000000     0.401770000000     0.007810000000    -0.0111487  
C324     C      0.760810000000     0.403240000000     0.462670000000     0.0304084  
C325     C      0.712670000000     0.127840000000     0.492510000000    -0.0116756  
C326     C      0.761060000000     0.123910000000     0.027280000000    -0.0206976  
C327     C      0.729710000000     0.153160000000     0.472010000000    -0.0107412  
C328     C      0.778200000000     0.148450000000     0.006450000000     0.0308104  
C329     C      0.769600000000     0.035320000000     0.387870000000    -0.0105768  
C330     C      0.717000000000     0.505150000000     0.385760000000    -0.0223402  
C331     C      0.762390000000     0.041220000000     0.352630000000    -0.00881476 
C332     C      0.731220000000     0.488770000000     0.356260000000     0.0325286  
C333     C      0.773420000000     0.010390000000     0.135210000000    -0.00689829 
C334     C      0.730100000000     0.469010000000     0.135960000000    -0.0210571  
C335     C      0.758150000000     0.026840000000     0.106980000000    -0.0105879  
C336     C      0.714190000000     0.485280000000     0.107010000000     0.0312388  
C337     C      0.487050000000     0.276950000000     0.390270000000    -0.0114524  
C338     C      0.523610000000     0.228950000000     0.391520000000    -0.0224347  
C339     C      0.968950000000     0.261970000000     0.362380000000    -0.0115161  
C340     C      0.005580000000     0.214580000000     0.363360000000     0.0249212  
C341     C      0.529640000000     0.246110000000     0.142650000000    -0.0121065  
C342     C      0.971420000000     0.230760000000     0.141030000000    -0.0221931  
C343     C      0.525220000000     0.264780000000     0.111690000000    -0.0080264  
C344     C      0.967840000000     0.249770000000     0.110210000000     0.0294168  
C345     C      0.639310000000     0.995740000000     0.274370000000    -0.00874885 
C346     C      0.640080000000     0.039060000000     0.233320000000    -0.0210118  
C347     C      0.611430000000     0.479510000000     0.258050000000    -0.0111219  
C348     C      0.611510000000     0.023250000000     0.216140000000     0.0305261  
C349     C      0.857410000000     0.459370000000     0.244220000000    -0.0106293  
C350     C      0.858150000000     0.011540000000     0.214520000000    -0.0196171  
C351     C      0.890450000000     0.467020000000     0.257780000000    -0.0101419  
C352     C      0.891090000000     0.019180000000     0.227980000000     0.0285443  
C353     C      0.971380000000     0.357010000000     0.233290000000    -0.0130289  
C354     C      0.519980000000     0.357100000000     0.268330000000    -0.022981   
C355     C      0.988280000000     0.380010000000     0.210220000000    -0.00335946 
C356     C      0.536460000000     0.379790000000     0.245030000000     0.0350989  
C357     C      0.500000000000     0.105370000000     0.217410000000    -0.0102054  
C358     C      0.970860000000     0.098680000000     0.269180000000    -0.0227632  
C359     C      0.516480000000     0.135060000000     0.230410000000    -0.0087191  
C360     C      0.984190000000     0.131340000000     0.280330000000     0.0339041  
C361     C      0.494420000000     0.052070000000     0.741600000000     0.428736   
C362     C      0.007750000000     0.431020000000     0.731030000000     0.431341   
C363     C      0.561060000000     0.998480000000     0.737470000000     0.430323   
C364     C      0.940450000000     0.987050000000     0.736220000000     0.428976   
C365     C      0.495090000000     0.183800000000     0.753230000000     0.431067   
C366     C      0.495020000000     0.305970000000     0.751950000000     0.427584   
C367     C      0.997580000000     0.244070000000     0.691840000000     0.430962   
C368     C      0.992210000000     0.243490000000     0.812440000000     0.435495   
C369     C      0.809370000000     0.993750000000     0.741360000000     0.427704   
C370     C      0.689400000000     0.010310000000     0.748050000000     0.43075    
C371     C      0.747390000000     0.496030000000     0.685210000000     0.430334   
C372     C      0.751450000000     0.508460000000     0.805240000000     0.42968    
C373     C      0.737480000000     0.075160000000     0.503760000000     0.428082   
C374     C      0.741950000000     0.453720000000     0.990100000000     0.43153    
C375     C      0.738360000000     0.007330000000     0.556720000000     0.431042   
C376     C      0.741160000000     0.020200000000     0.936680000000     0.428522   
C377     C      0.500340000000     0.251040000000     0.561520000000     0.432643   
C378     C      0.001560000000     0.251220000000     0.941060000000     0.422501   
C379     C      0.561320000000     0.256390000000     0.501120000000     0.427729   
C380     C      0.940860000000     0.244810000000     0.502100000000     0.432792   
C381     C      0.754230000000     0.202330000000     0.992620000000     0.431059   
C382     C      0.756370000000     0.324290000000     0.997810000000     0.429076   
C383     C      0.694260000000     0.264170000000     0.497890000000     0.427283   
C384     C      0.815330000000     0.262860000000     0.493220000000     0.4275     
C385     C      0.865880000000     0.249490000000     0.965790000000    -0.0122928  
C386     C      0.866160000000     0.278110000000     0.518460000000    -0.0225511  
C387     C      0.891030000000     0.225840000000     0.978480000000    -0.00900548 
C388     C      0.889830000000     0.253590000000     0.531080000000     0.0325104  
C389     C      0.642730000000     0.279810000000     0.974670000000    -0.0109291  
C390     C      0.645690000000     0.247810000000     0.025990000000    -0.0225653  
C391     C      0.609020000000     0.287550000000     0.486640000000    -0.00922209 
C392     C      0.613530000000     0.233800000000     0.515380000000     0.0329639  
C393     C      0.741140000000     0.375050000000     0.523670000000    -0.0105881  
C394     C      0.778930000000     0.374910000000     0.977360000000    -0.0213271  
C395     C      0.721880000000     0.401770000000     0.507810000000    -0.00997835 
C396     C      0.760810000000     0.403240000000     0.962670000000     0.0303521  
C397     C      0.712670000000     0.127840000000     0.992510000000    -0.0103666  
C398     C      0.761060000000     0.123910000000     0.527280000000    -0.0209359  
C399     C      0.729710000000     0.153160000000     0.972010000000    -0.0110095  
C400     C      0.778200000000     0.148450000000     0.506450000000     0.0318673  
C401     C      0.769600000000     0.035320000000     0.887870000000    -0.0105806  
C402     C      0.717000000000     0.505150000000     0.885760000000    -0.0223434  
C403     C      0.762390000000     0.041220000000     0.852630000000    -0.00881353 
C404     C      0.731220000000     0.488770000000     0.856260000000     0.0325256  
C405     C      0.773420000000     0.010390000000     0.635210000000    -0.00692499 
C406     C      0.730100000000     0.469010000000     0.635950000000    -0.021072   
C407     C      0.758150000000     0.026840000000     0.606980000000    -0.0105973  
C408     C      0.714190000000     0.485280000000     0.607010000000     0.0312102  
C409     C      0.487050000000     0.276950000000     0.890270000000    -0.0114676  
C410     C      0.523610000000     0.228950000000     0.891520000000    -0.0224429  
C411     C      0.968950000000     0.261970000000     0.862380000000    -0.0115062  
C412     C      0.005580000000     0.214580000000     0.863360000000     0.0249276  
C413     C      0.529640000000     0.246110000000     0.642650000000    -0.0121205  
C414     C      0.971420000000     0.230760000000     0.641030000000    -0.0221941  
C415     C      0.525220000000     0.264780000000     0.611680000000    -0.00800084 
C416     C      0.967840000000     0.249770000000     0.610210000000     0.029412   
C417     C      0.639310000000     0.995740000000     0.774370000000    -0.00871978 
C418     C      0.640080000000     0.039060000000     0.733320000000    -0.021014   
C419     C      0.611430000000     0.479510000000     0.758050000000    -0.0111324  
C420     C      0.611510000000     0.023250000000     0.716140000000     0.0305222  
C421     C      0.857410000000     0.459370000000     0.744220000000    -0.0106152  
C422     C      0.858150000000     0.011540000000     0.714520000000    -0.0196455  
C423     C      0.890450000000     0.467020000000     0.757780000000    -0.0101894  
C424     C      0.891090000000     0.019180000000     0.727980000000     0.0285311  
C425     C      0.971380000000     0.357010000000     0.733290000000    -0.0130268  
C426     C      0.519980000000     0.357100000000     0.768330000000    -0.0229805  
C427     C      0.988280000000     0.380010000000     0.710220000000    -0.00336597 
C428     C      0.536460000000     0.379790000000     0.745030000000     0.0350924  
C429     C      0.500000000000     0.105370000000     0.717410000000    -0.0102539  
C430     C      0.970860000000     0.098680000000     0.769180000000    -0.0227789  
C431     C      0.516480000000     0.135060000000     0.730420000000    -0.00863889 
C432     C      0.984190000000     0.131340000000     0.780330000000     0.0338973  
C433     C      0.494420000000     0.552070000000     0.241600000000     0.429144   
C434     C      0.007750000000     0.931030000000     0.231030000000     0.431573   
C435     C      0.561060000000     0.498480000000     0.237460000000     0.431024   
C436     C      0.940450000000     0.487050000000     0.236220000000     0.429132   
C437     C      0.495090000000     0.683800000000     0.253230000000     0.431061   
C438     C      0.495020000000     0.805970000000     0.251950000000     0.427594   
C439     C      0.997580000000     0.744070000000     0.191840000000     0.430933   
C440     C      0.992210000000     0.743490000000     0.312440000000     0.435504   
C441     C      0.809370000000     0.493740000000     0.241360000000     0.428399   
C442     C      0.689400000000     0.510310000000     0.248050000000     0.42968    
C443     C      0.747390000000     0.996030000000     0.185210000000     0.42935    
C444     C      0.751450000000     0.008460000000     0.305240000000     0.430547   
C445     C      0.737480000000     0.575160000000     0.003760000000     0.427366   
C446     C      0.741950000000     0.953720000000     0.490100000000     0.431512   
C447     C      0.738360000000     0.507330000000     0.056720000000     0.431083   
C448     C      0.741160000000     0.520200000000     0.436680000000     0.428276   
C449     C      0.500340000000     0.751040000000     0.061520000000     0.432565   
C450     C      0.001560000000     0.751220000000     0.441060000000     0.422647   
C451     C      0.561320000000     0.756390000000     0.001120000000     0.426782   
C452     C      0.940860000000     0.744810000000     0.002100000000     0.431866   
C453     C      0.754230000000     0.702330000000     0.492620000000     0.43024    
C454     C      0.756370000000     0.824290000000     0.497810000000     0.428216   
C455     C      0.694260000000     0.764170000000     0.997890000000     0.428205   
C456     C      0.815330000000     0.762860000000     0.993220000000     0.428359   
C457     C      0.865880000000     0.749490000000     0.465790000000    -0.0122651  
C458     C      0.866160000000     0.778110000000     0.018460000000    -0.023059   
C459     C      0.891030000000     0.725840000000     0.478480000000    -0.00949417 
C460     C      0.889830000000     0.753590000000     0.031080000000     0.0325977  
C461     C      0.642730000000     0.779810000000     0.474670000000    -0.0107032  
C462     C      0.645690000000     0.747820000000     0.525990000000    -0.022179   
C463     C      0.609020000000     0.787550000000     0.986640000000    -0.00793954 
C464     C      0.613530000000     0.733800000000     0.015380000000     0.0322972  
C465     C      0.741140000000     0.875050000000     0.023670000000    -0.0107434  
C466     C      0.778930000000     0.874910000000     0.477360000000    -0.0214285  
C467     C      0.721880000000     0.901760000000     0.007810000000    -0.0112084  
C468     C      0.760810000000     0.903240000000     0.462670000000     0.0304595  
C469     C      0.712670000000     0.627840000000     0.492510000000    -0.0116739  
C470     C      0.761060000000     0.623910000000     0.027280000000    -0.0206942  
C471     C      0.729710000000     0.653160000000     0.472010000000    -0.0107411  
C472     C      0.778200000000     0.648450000000     0.006450000000     0.0307912  
C473     C      0.769600000000     0.535320000000     0.387870000000    -0.0106115  
C474     C      0.717000000000     0.005150000000     0.385760000000    -0.0208287  
C475     C      0.762390000000     0.541230000000     0.352630000000    -0.00893122 
C476     C      0.731220000000     0.988770000000     0.356260000000     0.0313781  
C477     C      0.773420000000     0.510390000000     0.135210000000    -0.00826993 
C478     C      0.730100000000     0.969010000000     0.135960000000    -0.0208238  
C479     C      0.758150000000     0.526840000000     0.106980000000    -0.0102506  
C480     C      0.714190000000     0.985280000000     0.107010000000     0.030058   
C481     C      0.487050000000     0.776950000000     0.390270000000    -0.0114494  
C482     C      0.523610000000     0.728950000000     0.391520000000    -0.0224365  
C483     C      0.968950000000     0.761970000000     0.362380000000    -0.0115182  
C484     C      0.005580000000     0.714580000000     0.363360000000     0.0249193  
C485     C      0.529640000000     0.746110000000     0.142650000000    -0.0120711  
C486     C      0.971420000000     0.730760000000     0.141030000000    -0.022191   
C487     C      0.525220000000     0.764780000000     0.111690000000    -0.00803658 
C488     C      0.967840000000     0.749770000000     0.110210000000     0.029417   
C489     C      0.639310000000     0.495740000000     0.274370000000    -0.00757775 
C490     C      0.640080000000     0.539060000000     0.233320000000    -0.0210886  
C491     C      0.611430000000     0.979510000000     0.258050000000    -0.0113462  
C492     C      0.611510000000     0.523250000000     0.216140000000     0.0305517  
C493     C      0.857410000000     0.959370000000     0.244220000000    -0.0106567  
C494     C      0.858150000000     0.511540000000     0.214520000000    -0.0208384  
C495     C      0.890450000000     0.967020000000     0.257780000000    -0.0101905  
C496     C      0.891090000000     0.519180000000     0.227980000000     0.0284016  
C497     C      0.971380000000     0.857010000000     0.233290000000    -0.0129798  
C498     C      0.519980000000     0.857100000000     0.268330000000    -0.022974   
C499     C      0.988280000000     0.880000000000     0.210220000000    -0.00342048 
C500     C      0.536460000000     0.879790000000     0.245030000000     0.035096   
C501     C      0.500000000000     0.605370000000     0.217410000000    -0.0101968  
C502     C      0.970860000000     0.598680000000     0.269180000000    -0.0227607  
C503     C      0.516480000000     0.635060000000     0.230410000000    -0.00872137 
C504     C      0.984190000000     0.631340000000     0.280330000000     0.0339282  
C505     C      0.494420000000     0.552070000000     0.741600000000     0.42885    
C506     C      0.007750000000     0.931030000000     0.731030000000     0.431539   
C507     C      0.561060000000     0.498480000000     0.737470000000     0.430985   
C508     C      0.940450000000     0.487050000000     0.736220000000     0.429093   
C509     C      0.495090000000     0.683800000000     0.753230000000     0.431063   
C510     C      0.495020000000     0.805970000000     0.751950000000     0.427646   
C511     C      0.997580000000     0.744070000000     0.691840000000     0.430931   
C512     C      0.992210000000     0.743490000000     0.812440000000     0.435498   
C513     C      0.809370000000     0.493740000000     0.741360000000     0.4284     
C514     C      0.689400000000     0.510310000000     0.748050000000     0.42968    
C515     C      0.747390000000     0.996030000000     0.685210000000     0.429369   
C516     C      0.751450000000     0.008460000000     0.805240000000     0.430528   
C517     C      0.737480000000     0.575160000000     0.503760000000     0.428036   
C518     C      0.741950000000     0.953720000000     0.990100000000     0.43163    
C519     C      0.738360000000     0.507330000000     0.556720000000     0.430937   
C520     C      0.741160000000     0.520200000000     0.936680000000     0.42835    
C521     C      0.500340000000     0.751040000000     0.561520000000     0.432646   
C522     C      0.001560000000     0.751220000000     0.941060000000     0.422494   
C523     C      0.561320000000     0.756390000000     0.501120000000     0.427732   
C524     C      0.940860000000     0.744810000000     0.502100000000     0.432809   
C525     C      0.754230000000     0.702330000000     0.992620000000     0.431079   
C526     C      0.756370000000     0.824290000000     0.997810000000     0.429096   
C527     C      0.694260000000     0.764170000000     0.497890000000     0.427344   
C528     C      0.815330000000     0.762860000000     0.493220000000     0.427501   
C529     C      0.865880000000     0.749490000000     0.965790000000    -0.0122806  
C530     C      0.866160000000     0.778110000000     0.518460000000    -0.0225965  
C531     C      0.891030000000     0.725840000000     0.978480000000    -0.00901953 
C532     C      0.889830000000     0.753590000000     0.531080000000     0.0325509  
C533     C      0.642730000000     0.779810000000     0.974670000000    -0.0109305  
C534     C      0.645690000000     0.747820000000     0.025990000000    -0.0225209  
C535     C      0.609020000000     0.787550000000     0.486640000000    -0.00922039 
C536     C      0.613530000000     0.733800000000     0.515380000000     0.0329519  
C537     C      0.741140000000     0.875050000000     0.523670000000    -0.0105752  
C538     C      0.778930000000     0.874910000000     0.977360000000    -0.0213357  
C539     C      0.721880000000     0.901760000000     0.507810000000    -0.0100026  
C540     C      0.760810000000     0.903240000000     0.962670000000     0.0304015  
C541     C      0.712670000000     0.627840000000     0.992510000000    -0.0103313  
C542     C      0.761060000000     0.623910000000     0.527280000000    -0.0209388  
C543     C      0.729710000000     0.653160000000     0.972010000000    -0.0110165  
C544     C      0.778200000000     0.648450000000     0.506450000000     0.0318759  
C545     C      0.769600000000     0.535320000000     0.887870000000    -0.0106131  
C546     C      0.717000000000     0.005150000000     0.885760000000    -0.0208705  
C547     C      0.762390000000     0.541230000000     0.852630000000    -0.00893021 
C548     C      0.731220000000     0.988770000000     0.856260000000     0.0314042  
C549     C      0.773420000000     0.510390000000     0.635210000000    -0.00826178 
C550     C      0.730100000000     0.969010000000     0.635950000000    -0.0208449  
C551     C      0.758150000000     0.526840000000     0.606980000000    -0.0102692  
C552     C      0.714190000000     0.985280000000     0.607010000000     0.0300605  
C553     C      0.487050000000     0.776950000000     0.890270000000    -0.0114651  
C554     C      0.523610000000     0.728950000000     0.891520000000    -0.0224448  
C555     C      0.968950000000     0.761970000000     0.862380000000    -0.0115081  
C556     C      0.005580000000     0.714580000000     0.863360000000     0.0249255  
C557     C      0.529640000000     0.746110000000     0.642650000000    -0.0120851  
C558     C      0.971420000000     0.730760000000     0.641030000000    -0.0221921  
C559     C      0.525220000000     0.764780000000     0.611680000000    -0.00801091 
C560     C      0.967840000000     0.749770000000     0.610210000000     0.0294121  
C561     C      0.639310000000     0.495740000000     0.774370000000    -0.00757688 
C562     C      0.640080000000     0.539060000000     0.733320000000    -0.0210895  
C563     C      0.611430000000     0.979510000000     0.758050000000    -0.0113515  
C564     C      0.611510000000     0.523250000000     0.716140000000     0.0305472  
C565     C      0.857410000000     0.959370000000     0.744220000000    -0.0106417  
C566     C      0.858150000000     0.511540000000     0.714520000000    -0.0208376  
C567     C      0.890450000000     0.967020000000     0.757780000000    -0.0102369  
C568     C      0.891090000000     0.519180000000     0.727980000000     0.0283913  
C569     C      0.971380000000     0.857010000000     0.733290000000    -0.0129778  
C570     C      0.519980000000     0.857100000000     0.768330000000    -0.0229736  
C571     C      0.988280000000     0.880000000000     0.710220000000    -0.00342705 
C572     C      0.536460000000     0.879790000000     0.745030000000     0.0350892  
C573     C      0.500000000000     0.605370000000     0.717410000000    -0.0102455  
C574     C      0.970860000000     0.598680000000     0.769180000000    -0.0227766  
C575     C      0.516480000000     0.635060000000     0.730420000000    -0.0086411  
C576     C      0.984190000000     0.631340000000     0.780330000000     0.0339211  
H1       H      0.379640000000     0.299000000000     0.009010000000     0.0481633  
H2       H      0.378370000000     0.269060000000     0.452920000000     0.0413869  
H3       H      0.406960000000     0.218290000000     0.458760000000     0.038112   
H4       H      0.350770000000     0.286970000000     0.038030000000     0.0492681  
H5       H      0.375470000000     0.233510000000     0.041000000000     0.0357145  
H6       H      0.350210000000     0.236740000000     0.448700000000     0.0435635  
H7       H      0.378560000000     0.204240000000     0.487720000000     0.0417425  
H8       H      0.160810000000     0.228590000000     0.536510000000     0.046007   
H9       H      0.141140000000     0.263680000000     0.453750000000     0.0454574  
H10      H      0.094650000000     0.297250000000     0.966680000000     0.0405385  
H11      H      0.141310000000     0.265670000000     0.545080000000     0.0439465  
H12      H      0.101300000000     0.224070000000     0.036710000000     0.0321488  
H13      H      0.154450000000     0.302330000000     0.466640000000     0.0393874  
H14      H      0.110490000000     0.306580000000     0.005050000000     0.0408766  
H15      H      0.299380000000     0.384340000000     0.991320000000     0.0458494  
H16      H      0.258630000000     0.386120000000     0.040140000000     0.0428679  
H17      H      0.210210000000     0.416450000000     0.026500000000     0.0417806  
H18      H      0.288850000000     0.359260000000     0.458380000000     0.0475131  
H19      H      0.243030000000     0.392730000000     0.446130000000     0.0342426  
H20      H      0.224760000000     0.359550000000     0.037640000000     0.0418376  
H21      H      0.202980000000     0.390660000000     0.492970000000     0.0418195  
H22      H      0.249150000000     0.136780000000     0.047130000000     0.0457897  
H23      H      0.198310000000     0.140520000000     0.510750000000     0.041745   
H24      H      0.211730000000     0.170220000000     0.462450000000     0.0412359  
H25      H      0.278340000000     0.106680000000     0.037840000000     0.0464868  
H26      H      0.290480000000     0.134560000000     0.987540000000     0.0362391  
H27      H      0.196280000000     0.113590000000     0.477320000000     0.0426787  
H28      H      0.241250000000     0.140740000000     0.451710000000     0.0413169  
H29      H      0.203480000000     0.487330000000     0.400130000000     0.0463388  
H30      H      0.290320000000     0.018860000000     0.390000000000     0.0474318  
H31      H      0.284410000000     0.049490000000     0.340480000000     0.040305   
H32      H      0.199600000000     0.523590000000     0.377850000000     0.0437876  
H33      H      0.211130000000     0.479110000000     0.341950000000     0.0313229  
H34      H      0.276490000000     0.058340000000     0.399320000000     0.0389328  
H35      H      0.244470000000     0.060740000000     0.350510000000     0.0424598  
H36      H      0.246160000000     0.449410000000     0.127780000000     0.0456543  
H37      H      0.291450000000     0.993140000000     0.126160000000     0.0396399  
H38      H      0.277080000000     0.038020000000     0.092190000000     0.0413513  
H39      H      0.211540000000     0.458310000000     0.151570000000     0.0449154  
H40      H      0.195670000000     0.502010000000     0.116040000000     0.0358725  
H41      H      0.286160000000     0.028460000000     0.149910000000     0.0406619  
H42      H      0.242830000000     0.046610000000     0.115990000000     0.0414915  
H43      H      0.044620000000     0.242440000000     0.382510000000     0.0458373  
H44      H      0.005290000000     0.293700000000     0.380720000000     0.0377888  
H45      H      0.459200000000     0.281520000000     0.347240000000     0.0401686  
H46      H      0.032670000000     0.209450000000     0.407130000000     0.0488023  
H47      H      0.486270000000     0.199480000000     0.373510000000     0.0340608  
H48      H      0.470050000000     0.291030000000     0.404920000000     0.0425767  
H49      H      0.448690000000     0.247750000000     0.371880000000     0.0409234  
H50      H      0.475360000000     0.205050000000     0.135100000000     0.0469798  
H51      H      0.039200000000     0.221930000000     0.136860000000     0.0416284  
H52      H      0.047750000000     0.264110000000     0.097810000000     0.0343839  
H53      H      0.448820000000     0.232370000000     0.154630000000     0.0495843  
H54      H      0.460850000000     0.274610000000     0.116940000000     0.0344202  
H55      H      0.047680000000     0.258760000000     0.157310000000     0.0442689  
H56      H      0.019880000000     0.290260000000     0.117480000000     0.0414266  
H57      H      0.131300000000     0.057550000000     0.250260000000     0.0455821  
H58      H      0.129660000000     0.012150000000     0.292800000000     0.040315   
H59      H      0.096390000000     0.467620000000     0.276300000000     0.0432874  
H60      H      0.155810000000     0.051080000000     0.215690000000     0.0454453  
H61      H      0.121100000000     0.507890000000     0.196830000000     0.0362199  
H62      H      0.154160000000     0.477410000000     0.286590000000     0.0406314  
H63      H      0.120970000000     0.460330000000     0.242380000000     0.0430047  
H64      H      0.360950000000     0.999690000000     0.191020000000     0.0432484  
H65      H      0.360410000000     0.444280000000     0.222690000000     0.041442   
H66      H      0.403750000000     0.444170000000     0.261280000000     0.0373554  
H67      H      0.344710000000     0.034210000000     0.210530000000     0.0473213  
H68      H      0.387340000000     0.033320000000     0.250030000000     0.0342581  
H69      H      0.343670000000     0.445380000000     0.262010000000     0.0424093  
H70      H      0.387430000000     0.478530000000     0.281380000000     0.0436734  
H71      H      0.008250000000     0.371620000000     0.287150000000     0.0474907  
H72      H      0.456780000000     0.371520000000     0.249960000000     0.0414655  
H73      H      0.470280000000     0.395590000000     0.198490000000     0.0398834  
H74      H      0.037720000000     0.341200000000     0.280060000000     0.0484197  
H75      H      0.048980000000     0.364330000000     0.227520000000     0.0338708  
H76      H      0.455160000000     0.341110000000     0.219620000000     0.0429974  
H77      H      0.500410000000     0.365470000000     0.191710000000     0.0414206  
H78      H      0.446460000000     0.102120000000     0.259450000000     0.0445877  
H79      H      0.478500000000     0.112890000000     0.203960000000     0.0438171  
H80      H      0.022870000000     0.151100000000     0.210270000000     0.0382449  
H81      H      0.468700000000     0.082200000000     0.289840000000     0.0479809  
H82      H      0.005260000000     0.126040000000     0.295390000000     0.0300954  
H83      H      0.016570000000     0.093160000000     0.200750000000     0.0451468  
H84      H      0.038800000000     0.127690000000     0.242590000000     0.0435236  
H85      H      0.379640000000     0.299000000000     0.509010000000     0.0482419  
H86      H      0.378370000000     0.269060000000     0.952920000000     0.0415153  
H87      H      0.406960000000     0.218290000000     0.958760000000     0.0381188  
H88      H      0.350770000000     0.286970000000     0.538030000000     0.0492533  
H89      H      0.375470000000     0.233510000000     0.541000000000     0.0358353  
H90      H      0.350210000000     0.236740000000     0.948700000000     0.0435902  
H91      H      0.378560000000     0.204240000000     0.987720000000     0.0418672  
H92      H      0.160810000000     0.228590000000     0.036510000000     0.0459283  
H93      H      0.141140000000     0.263680000000     0.953750000000     0.045526   
H94      H      0.094650000000     0.297250000000     0.466680000000     0.0406777  
H95      H      0.141310000000     0.265670000000     0.045080000000     0.0439448  
H96      H      0.101300000000     0.224070000000     0.536710000000     0.0320839  
H97      H      0.154450000000     0.302330000000     0.966640000000     0.0395288  
H98      H      0.110490000000     0.306580000000     0.505050000000     0.0415512  
H99      H      0.299380000000     0.384340000000     0.491320000000     0.0456617  
H100     H      0.258630000000     0.386120000000     0.540140000000     0.0429699  
H101     H      0.210210000000     0.416450000000     0.526500000000     0.0416958  
H102     H      0.288850000000     0.359260000000     0.958380000000     0.0475309  
H103     H      0.243030000000     0.392730000000     0.946130000000     0.0342767  
H104     H      0.224760000000     0.359550000000     0.537640000000     0.0419303  
H105     H      0.202980000000     0.390660000000     0.992970000000     0.0424782  
H106     H      0.249150000000     0.136780000000     0.547130000000     0.0458888  
H107     H      0.198310000000     0.140520000000     0.010750000000     0.0410399  
H108     H      0.211730000000     0.170220000000     0.962450000000     0.0413546  
H109     H      0.278340000000     0.106680000000     0.537840000000     0.0465949  
H110     H      0.290480000000     0.134560000000     0.487540000000     0.0355761  
H111     H      0.196280000000     0.113590000000     0.977320000000     0.0425295  
H112     H      0.241250000000     0.140740000000     0.951710000000     0.0414253  
H113     H      0.203480000000     0.487330000000     0.900130000000     0.0463604  
H114     H      0.290320000000     0.018860000000     0.890000000000     0.0474541  
H115     H      0.284410000000     0.049490000000     0.840480000000     0.0403134  
H116     H      0.199600000000     0.523590000000     0.877850000000     0.0438087  
H117     H      0.211130000000     0.479110000000     0.841950000000     0.0313298  
H118     H      0.276490000000     0.058340000000     0.899320000000     0.0389714  
H119     H      0.244470000000     0.060740000000     0.850510000000     0.0424661  
H120     H      0.246160000000     0.449410000000     0.627780000000     0.0456805  
H121     H      0.291450000000     0.993140000000     0.626160000000     0.0396886  
H122     H      0.277080000000     0.038020000000     0.592190000000     0.0413861  
H123     H      0.211540000000     0.458310000000     0.651570000000     0.0449228  
H124     H      0.195670000000     0.502010000000     0.616040000000     0.0359016  
H125     H      0.286160000000     0.028460000000     0.649910000000     0.0406758  
H126     H      0.242830000000     0.046610000000     0.615980000000     0.0415115  
H127     H      0.044620000000     0.242440000000     0.882510000000     0.0458592  
H128     H      0.005290000000     0.293700000000     0.880720000000     0.0378325  
H129     H      0.459200000000     0.281520000000     0.847240000000     0.0401845  
H130     H      0.032670000000     0.209450000000     0.907130000000     0.0488535  
H131     H      0.486270000000     0.199480000000     0.873510000000     0.0340887  
H132     H      0.470050000000     0.291030000000     0.904920000000     0.0426428  
H133     H      0.448690000000     0.247750000000     0.871880000000     0.040944   
H134     H      0.475360000000     0.205050000000     0.635100000000     0.0469973  
H135     H      0.039200000000     0.221930000000     0.636860000000     0.0416459  
H136     H      0.047750000000     0.264110000000     0.597810000000     0.0343993  
H137     H      0.448820000000     0.232370000000     0.654630000000     0.0495873  
H138     H      0.460850000000     0.274610000000     0.616940000000     0.0344271  
H139     H      0.047680000000     0.258760000000     0.657310000000     0.0442774  
H140     H      0.019880000000     0.290260000000     0.617480000000     0.041437   
H141     H      0.131300000000     0.057550000000     0.750260000000     0.0455853  
H142     H      0.129660000000     0.012150000000     0.792800000000     0.0403122  
H143     H      0.096390000000     0.467620000000     0.776300000000     0.0433022  
H144     H      0.155810000000     0.051080000000     0.715690000000     0.0454504  
H145     H      0.121100000000     0.507890000000     0.696830000000     0.0362339  
H146     H      0.154160000000     0.477410000000     0.786590000000     0.0406377  
H147     H      0.120970000000     0.460330000000     0.742380000000     0.0430117  
H148     H      0.360950000000     0.999690000000     0.691020000000     0.04328    
H149     H      0.360410000000     0.444280000000     0.722690000000     0.0414471  
H150     H      0.403750000000     0.444170000000     0.761280000000     0.0373789  
H151     H      0.344710000000     0.034210000000     0.710530000000     0.0473302  
H152     H      0.387340000000     0.033320000000     0.750030000000     0.0342628  
H153     H      0.343670000000     0.445380000000     0.762010000000     0.0424114  
H154     H      0.387430000000     0.478530000000     0.781370000000     0.0437116  
H155     H      0.008250000000     0.371620000000     0.787150000000     0.0475101  
H156     H      0.456780000000     0.371520000000     0.749960000000     0.0414745  
H157     H      0.470280000000     0.395590000000     0.698490000000     0.0398979  
H158     H      0.037720000000     0.341200000000     0.780060000000     0.0484274  
H159     H      0.048980000000     0.364330000000     0.727520000000     0.033875   
H160     H      0.455160000000     0.341110000000     0.719620000000     0.0429937  
H161     H      0.500410000000     0.365470000000     0.691710000000     0.041431   
H162     H      0.446460000000     0.102120000000     0.759450000000     0.0445958  
H163     H      0.478500000000     0.112890000000     0.703960000000     0.0438376  
H164     H      0.022870000000     0.151100000000     0.710270000000     0.0382262  
H165     H      0.468700000000     0.082200000000     0.789840000000     0.048009   
H166     H      0.005260000000     0.126040000000     0.795390000000     0.0301115  
H167     H      0.016570000000     0.093160000000     0.700750000000     0.045171   
H168     H      0.038800000000     0.127690000000     0.742590000000     0.0435064  
H169     H      0.379640000000     0.798990000000     0.009010000000     0.0481735  
H170     H      0.378370000000     0.769060000000     0.452920000000     0.0413796  
H171     H      0.406960000000     0.718290000000     0.458760000000     0.0381052  
H172     H      0.350770000000     0.786970000000     0.038030000000     0.0492733  
H173     H      0.375470000000     0.733510000000     0.041000000000     0.0356946  
H174     H      0.350210000000     0.736740000000     0.448700000000     0.0435565  
H175     H      0.378560000000     0.704240000000     0.487720000000     0.0417303  
H176     H      0.160810000000     0.728590000000     0.536510000000     0.0459765  
H177     H      0.141140000000     0.763680000000     0.453750000000     0.0454526  
H178     H      0.094650000000     0.797250000000     0.966680000000     0.040522   
H179     H      0.141310000000     0.765670000000     0.545080000000     0.043933   
H180     H      0.101300000000     0.724070000000     0.036710000000     0.0321439  
H181     H      0.154450000000     0.802330000000     0.466640000000     0.0393781  
H182     H      0.110490000000     0.806580000000     0.005050000000     0.0408437  
H183     H      0.299380000000     0.884340000000     0.991320000000     0.0458258  
H184     H      0.258630000000     0.886120000000     0.040140000000     0.0428322  
H185     H      0.210210000000     0.916450000000     0.026500000000     0.041735   
H186     H      0.288850000000     0.859260000000     0.458380000000     0.0475076  
H187     H      0.243030000000     0.892730000000     0.446130000000     0.0342147  
H188     H      0.224760000000     0.859550000000     0.037640000000     0.0418248  
H189     H      0.202980000000     0.890660000000     0.492970000000     0.0418022  
H190     H      0.249150000000     0.636780000000     0.047130000000     0.045782   
H191     H      0.198310000000     0.640520000000     0.510750000000     0.04173    
H192     H      0.211730000000     0.670220000000     0.462450000000     0.0412288  
H193     H      0.278340000000     0.606680000000     0.037840000000     0.046464   
H194     H      0.290480000000     0.634560000000     0.987540000000     0.0362372  
H195     H      0.196280000000     0.613590000000     0.477320000000     0.0426537  
H196     H      0.241250000000     0.640740000000     0.451710000000     0.0413102  
H197     H      0.203480000000     0.987330000000     0.400130000000     0.0455853  
H198     H      0.290320000000     0.518860000000     0.390000000000     0.0472541  
H199     H      0.284410000000     0.549490000000     0.340480000000     0.0402835  
H200     H      0.199600000000     0.023580000000     0.377850000000     0.0436161  
H201     H      0.211130000000     0.979110000000     0.341950000000     0.0314159  
H202     H      0.276490000000     0.558340000000     0.399320000000     0.0389154  
H203     H      0.244470000000     0.560740000000     0.350510000000     0.0424801  
H204     H      0.246160000000     0.949410000000     0.127780000000     0.045558   
H205     H      0.291450000000     0.493140000000     0.126160000000     0.0403549  
H206     H      0.277080000000     0.538020000000     0.092190000000     0.0411928  
H207     H      0.211540000000     0.958310000000     0.151570000000     0.0447877  
H208     H      0.195670000000     0.002010000000     0.116040000000     0.0365882  
H209     H      0.286160000000     0.528460000000     0.149910000000     0.040809   
H210     H      0.242830000000     0.546610000000     0.115990000000     0.041374   
H211     H      0.044620000000     0.742440000000     0.382510000000     0.0458334  
H212     H      0.005290000000     0.793700000000     0.380720000000     0.0377738  
H213     H      0.459200000000     0.781520000000     0.347240000000     0.040163   
H214     H      0.032670000000     0.709450000000     0.407130000000     0.0487865  
H215     H      0.486270000000     0.699480000000     0.373510000000     0.034044   
H216     H      0.470050000000     0.791030000000     0.404920000000     0.0425644  
H217     H      0.448690000000     0.747750000000     0.371880000000     0.0409191  
H218     H      0.475360000000     0.705050000000     0.135100000000     0.0469695  
H219     H      0.039200000000     0.721920000000     0.136860000000     0.0416053  
H220     H      0.047750000000     0.764110000000     0.097810000000     0.0343808  
H221     H      0.448820000000     0.732370000000     0.154630000000     0.0495828  
H222     H      0.460850000000     0.774610000000     0.116940000000     0.0344129  
H223     H      0.047680000000     0.758760000000     0.157310000000     0.0442578  
H224     H      0.019880000000     0.790260000000     0.117480000000     0.0414171  
H225     H      0.131300000000     0.557550000000     0.250260000000     0.0455592  
H226     H      0.129660000000     0.512150000000     0.292800000000     0.0396231  
H227     H      0.096390000000     0.967620000000     0.276300000000     0.0432514  
H228     H      0.155810000000     0.551080000000     0.215690000000     0.0454424  
H229     H      0.121100000000     0.007890000000     0.196830000000     0.0364561  
H230     H      0.154160000000     0.977410000000     0.286590000000     0.0407492  
H231     H      0.120970000000     0.960330000000     0.242380000000     0.0429503  
H232     H      0.360950000000     0.499690000000     0.191020000000     0.0439308  
H233     H      0.360410000000     0.944280000000     0.222690000000     0.0414135  
H234     H      0.403750000000     0.944170000000     0.261280000000     0.0373487  
H235     H      0.344710000000     0.534210000000     0.210530000000     0.0474867  
H236     H      0.387340000000     0.533320000000     0.250030000000     0.0341401  
H237     H      0.343670000000     0.945380000000     0.262010000000     0.0423877  
H238     H      0.387430000000     0.978530000000     0.281380000000     0.043533   
H239     H      0.008250000000     0.871620000000     0.287150000000     0.0474815  
H240     H      0.456780000000     0.871530000000     0.249960000000     0.0414471  
H241     H      0.470280000000     0.895590000000     0.198490000000     0.0398836  
H242     H      0.037720000000     0.841200000000     0.280060000000     0.0484122  
H243     H      0.048980000000     0.864330000000     0.227520000000     0.0338614  
H244     H      0.455160000000     0.841110000000     0.219620000000     0.0429858  
H245     H      0.500410000000     0.865470000000     0.191710000000     0.0414204  
H246     H      0.446460000000     0.602120000000     0.259450000000     0.0445605  
H247     H      0.478500000000     0.612890000000     0.203960000000     0.043792   
H248     H      0.022870000000     0.651100000000     0.210270000000     0.0382364  
H249     H      0.468700000000     0.582200000000     0.289840000000     0.0479023  
H250     H      0.005260000000     0.626040000000     0.295390000000     0.0300494  
H251     H      0.016570000000     0.593160000000     0.200750000000     0.0451021  
H252     H      0.038800000000     0.627690000000     0.242590000000     0.0435036  
H253     H      0.379640000000     0.798990000000     0.509010000000     0.0482548  
H254     H      0.378370000000     0.769060000000     0.952920000000     0.0415111  
H255     H      0.406960000000     0.718290000000     0.958760000000     0.0381121  
H256     H      0.350770000000     0.786970000000     0.538030000000     0.0492584  
H257     H      0.375470000000     0.733510000000     0.541000000000     0.0358185  
H258     H      0.350210000000     0.736740000000     0.948700000000     0.0435839  
H259     H      0.378560000000     0.704240000000     0.987720000000     0.0418576  
H260     H      0.160810000000     0.728590000000     0.036510000000     0.0458957  
H261     H      0.141140000000     0.763680000000     0.953750000000     0.045523   
H262     H      0.094650000000     0.797250000000     0.466680000000     0.0406647  
H263     H      0.141310000000     0.765670000000     0.045080000000     0.0439313  
H264     H      0.101300000000     0.724070000000     0.536710000000     0.0320776  
H265     H      0.154450000000     0.802330000000     0.966640000000     0.039523   
H266     H      0.110490000000     0.806580000000     0.505050000000     0.0415358  
H267     H      0.299380000000     0.884340000000     0.491320000000     0.045634   
H268     H      0.258630000000     0.886120000000     0.540140000000     0.0429379  
H269     H      0.210210000000     0.916450000000     0.526500000000     0.0416486  
H270     H      0.288850000000     0.859260000000     0.958380000000     0.0475257  
H271     H      0.243030000000     0.892730000000     0.946130000000     0.0342503  
H272     H      0.224760000000     0.859550000000     0.537640000000     0.0419204  
H273     H      0.202980000000     0.890660000000     0.992970000000     0.0424795  
H274     H      0.249150000000     0.636780000000     0.547130000000     0.0458837  
H275     H      0.198310000000     0.640520000000     0.010750000000     0.0410063  
H276     H      0.211730000000     0.670220000000     0.962450000000     0.0413505  
H277     H      0.278340000000     0.606680000000     0.537840000000     0.0465753  
H278     H      0.290480000000     0.634560000000     0.487540000000     0.0355573  
H279     H      0.196280000000     0.613590000000     0.977320000000     0.0425007  
H280     H      0.241250000000     0.640740000000     0.951710000000     0.0414215  
H281     H      0.203480000000     0.987330000000     0.900130000000     0.0456268  
H282     H      0.290320000000     0.518860000000     0.890000000000     0.0472804  
H283     H      0.284410000000     0.549490000000     0.840480000000     0.0402934  
H284     H      0.199600000000     0.023580000000     0.877850000000     0.0436419  
H285     H      0.211130000000     0.979110000000     0.841950000000     0.0314204  
H286     H      0.276490000000     0.558340000000     0.899320000000     0.0389547  
H287     H      0.244470000000     0.560740000000     0.850510000000     0.0424869  
H288     H      0.246160000000     0.949410000000     0.627780000000     0.045587   
H289     H      0.291450000000     0.493140000000     0.626160000000     0.0403847  
H290     H      0.277080000000     0.538020000000     0.592190000000     0.0412322  
H291     H      0.211540000000     0.958310000000     0.651570000000     0.0447985  
H292     H      0.195670000000     0.002010000000     0.616040000000     0.0365991  
H293     H      0.286160000000     0.528460000000     0.649910000000     0.040819   
H294     H      0.242830000000     0.546610000000     0.615980000000     0.0413975  
H295     H      0.044620000000     0.742440000000     0.882510000000     0.0458559  
H296     H      0.005290000000     0.793700000000     0.880720000000     0.0378184  
H297     H      0.459200000000     0.781520000000     0.847240000000     0.0401792  
H298     H      0.032670000000     0.709450000000     0.907130000000     0.048839   
H299     H      0.486270000000     0.699480000000     0.873510000000     0.0340727  
H300     H      0.470050000000     0.791030000000     0.904920000000     0.0426322  
H301     H      0.448690000000     0.747750000000     0.871880000000     0.0409402  
H302     H      0.475360000000     0.705050000000     0.635100000000     0.0469877  
H303     H      0.039200000000     0.721920000000     0.636860000000     0.0416233  
H304     H      0.047750000000     0.764110000000     0.597810000000     0.0343967  
H305     H      0.448820000000     0.732370000000     0.654630000000     0.049586   
H306     H      0.460850000000     0.774610000000     0.616940000000     0.03442    
H307     H      0.047680000000     0.758760000000     0.657310000000     0.0442664  
H308     H      0.019880000000     0.790260000000     0.617480000000     0.0414282  
H309     H      0.131300000000     0.557550000000     0.750260000000     0.045563   
H310     H      0.129660000000     0.512150000000     0.792800000000     0.0396363  
H311     H      0.096390000000     0.967620000000     0.776300000000     0.0432672  
H312     H      0.155810000000     0.551080000000     0.715690000000     0.0454478  
H313     H      0.121100000000     0.007890000000     0.696830000000     0.0364649  
H314     H      0.154160000000     0.977410000000     0.786590000000     0.0407527  
H315     H      0.120970000000     0.960330000000     0.742380000000     0.0429586  
H316     H      0.360950000000     0.499690000000     0.691020000000     0.0439456  
H317     H      0.360410000000     0.944280000000     0.722690000000     0.0414194  
H318     H      0.403750000000     0.944170000000     0.761280000000     0.0373725  
H319     H      0.344710000000     0.534210000000     0.710530000000     0.0474917  
H320     H      0.387340000000     0.533320000000     0.750030000000     0.0341475  
H321     H      0.343670000000     0.945380000000     0.762010000000     0.0423902  
H322     H      0.387430000000     0.978530000000     0.781370000000     0.0435749  
H323     H      0.008250000000     0.871620000000     0.787150000000     0.0475014  
H324     H      0.456780000000     0.871530000000     0.749960000000     0.0414564  
H325     H      0.470280000000     0.895590000000     0.698490000000     0.0398989  
H326     H      0.037720000000     0.841200000000     0.780060000000     0.0484201  
H327     H      0.048980000000     0.864330000000     0.727520000000     0.0338659  
H328     H      0.455160000000     0.841110000000     0.719620000000     0.0429822  
H329     H      0.500410000000     0.865470000000     0.691710000000     0.0414315  
H330     H      0.446460000000     0.602120000000     0.759450000000     0.0445692  
H331     H      0.478500000000     0.612890000000     0.703960000000     0.0438132  
H332     H      0.022870000000     0.651100000000     0.710270000000     0.038218   
H333     H      0.468700000000     0.582200000000     0.789840000000     0.0479321  
H334     H      0.005260000000     0.626040000000     0.795390000000     0.0300664  
H335     H      0.016570000000     0.593160000000     0.700750000000     0.0451276  
H336     H      0.038800000000     0.627690000000     0.742590000000     0.0434868  
H337     H      0.879640000000     0.299000000000     0.009010000000     0.0483014  
H338     H      0.878370000000     0.269060000000     0.452920000000     0.0415113  
H339     H      0.906960000000     0.218290000000     0.458760000000     0.038435   
H340     H      0.850770000000     0.286970000000     0.038030000000     0.049312   
H341     H      0.875480000000     0.233510000000     0.041000000000     0.0357608  
H342     H      0.850210000000     0.236740000000     0.448700000000     0.0436208  
H343     H      0.878560000000     0.204240000000     0.487720000000     0.0419007  
H344     H      0.660810000000     0.228590000000     0.536510000000     0.0460281  
H345     H      0.641150000000     0.263680000000     0.453750000000     0.0454823  
H346     H      0.594650000000     0.297250000000     0.966680000000     0.0408137  
H347     H      0.641310000000     0.265670000000     0.545080000000     0.0440063  
H348     H      0.601300000000     0.224070000000     0.036710000000     0.0323418  
H349     H      0.654450000000     0.302330000000     0.466640000000     0.0394448  
H350     H      0.610490000000     0.306580000000     0.005050000000     0.0410901  
H351     H      0.799380000000     0.384340000000     0.991320000000     0.0459397  
H352     H      0.758630000000     0.386120000000     0.040140000000     0.0429075  
H353     H      0.710210000000     0.416450000000     0.026500000000     0.0418299  
H354     H      0.788850000000     0.359260000000     0.458380000000     0.0475604  
H355     H      0.743030000000     0.392730000000     0.446130000000     0.0342702  
H356     H      0.724770000000     0.359550000000     0.037640000000     0.0418792  
H357     H      0.702980000000     0.390660000000     0.492970000000     0.0418895  
H358     H      0.749150000000     0.136780000000     0.047130000000     0.0457968  
H359     H      0.698310000000     0.140520000000     0.510750000000     0.0417904  
H360     H      0.711730000000     0.170220000000     0.462450000000     0.0412501  
H361     H      0.778340000000     0.106680000000     0.037840000000     0.0465312  
H362     H      0.790480000000     0.134560000000     0.987540000000     0.0363077  
H363     H      0.696280000000     0.113590000000     0.477320000000     0.0427423  
H364     H      0.741250000000     0.140740000000     0.451710000000     0.0413353  
H365     H      0.703480000000     0.487330000000     0.400130000000     0.0464078  
H366     H      0.790320000000     0.018860000000     0.390000000000     0.0475216  
H367     H      0.784410000000     0.049490000000     0.340480000000     0.0403506  
H368     H      0.699600000000     0.523590000000     0.377850000000     0.0438577  
H369     H      0.711130000000     0.479110000000     0.341950000000     0.0313521  
H370     H      0.776490000000     0.058340000000     0.399320000000     0.0389943  
H371     H      0.744470000000     0.060740000000     0.350510000000     0.0424736  
H372     H      0.746160000000     0.449410000000     0.127780000000     0.0456882  
H373     H      0.791460000000     0.993140000000     0.126160000000     0.0397074  
H374     H      0.777080000000     0.038020000000     0.092190000000     0.0414101  
H375     H      0.711540000000     0.458310000000     0.151570000000     0.0449521  
H376     H      0.695670000000     0.502010000000     0.116040000000     0.0359328  
H377     H      0.786160000000     0.028460000000     0.149910000000     0.0406933  
H378     H      0.742830000000     0.046610000000     0.115990000000     0.0415099  
H379     H      0.544620000000     0.242440000000     0.382510000000     0.0463308  
H380     H      0.505290000000     0.293700000000     0.380720000000     0.0418123  
H381     H      0.959200000000     0.281520000000     0.347240000000     0.0410014  
H382     H      0.532680000000     0.209450000000     0.407130000000     0.0494286  
H383     H      0.986280000000     0.199480000000     0.373510000000     0.0378545  
H384     H      0.970050000000     0.291030000000     0.404920000000     0.0417282  
H385     H      0.948690000000     0.247750000000     0.371880000000     0.0415873  
H386     H      0.975360000000     0.205050000000     0.135100000000     0.0476158  
H387     H      0.539200000000     0.221930000000     0.136860000000     0.0420317  
H388     H      0.547750000000     0.264110000000     0.097810000000     0.0340139  
H389     H      0.948820000000     0.232370000000     0.154630000000     0.0495397  
H390     H      0.960850000000     0.274610000000     0.116940000000     0.0351958  
H391     H      0.547680000000     0.258760000000     0.157310000000     0.0441711  
H392     H      0.519870000000     0.290260000000     0.117480000000     0.0418697  
H393     H      0.631300000000     0.057550000000     0.250260000000     0.045656   
H394     H      0.629660000000     0.012150000000     0.292800000000     0.0404487  
H395     H      0.596390000000     0.467620000000     0.276300000000     0.0433605  
H396     H      0.655810000000     0.051080000000     0.215690000000     0.0454502  
H397     H      0.621090000000     0.507890000000     0.196830000000     0.0363156  
H398     H      0.654160000000     0.477410000000     0.286590000000     0.0406741  
H399     H      0.620970000000     0.460330000000     0.242380000000     0.0429998  
H400     H      0.860950000000     0.999690000000     0.191020000000     0.0433698  
H401     H      0.860410000000     0.444280000000     0.222690000000     0.0415534  
H402     H      0.903740000000     0.444170000000     0.261280000000     0.0377048  
H403     H      0.844710000000     0.034210000000     0.210530000000     0.0473397  
H404     H      0.887340000000     0.033320000000     0.250030000000     0.0343605  
H405     H      0.843670000000     0.445380000000     0.262010000000     0.0424672  
H406     H      0.887420000000     0.478530000000     0.281380000000     0.0438827  
H407     H      0.508250000000     0.371620000000     0.287150000000     0.0480297  
H408     H      0.956780000000     0.371520000000     0.249960000000     0.0424456  
H409     H      0.970280000000     0.395590000000     0.198490000000     0.0393667  
H410     H      0.537720000000     0.341200000000     0.280060000000     0.0483013  
H411     H      0.548980000000     0.364330000000     0.227520000000     0.0343663  
H412     H      0.955160000000     0.341110000000     0.219620000000     0.043664   
H413     H      0.000410000000     0.365470000000     0.191710000000     0.0373219  
H414     H      0.946460000000     0.102120000000     0.259450000000     0.0448652  
H415     H      0.978500000000     0.112890000000     0.203960000000     0.047365   
H416     H      0.522870000000     0.151100000000     0.210270000000     0.039105   
H417     H      0.968700000000     0.082200000000     0.289840000000     0.0488559  
H418     H      0.505260000000     0.126040000000     0.295390000000     0.0335836  
H419     H      0.516570000000     0.093160000000     0.200750000000     0.0446827  
H420     H      0.538800000000     0.127690000000     0.242590000000     0.043888   
H421     H      0.879640000000     0.299000000000     0.509010000000     0.0483802  
H422     H      0.878370000000     0.269060000000     0.952920000000     0.0416379  
H423     H      0.906960000000     0.218290000000     0.958760000000     0.0384405  
H424     H      0.850770000000     0.286970000000     0.538030000000     0.0492975  
H425     H      0.875480000000     0.233510000000     0.541000000000     0.0358808  
H426     H      0.850210000000     0.236740000000     0.948700000000     0.0436471  
H427     H      0.878560000000     0.204240000000     0.987720000000     0.0420235  
H428     H      0.660810000000     0.228590000000     0.036510000000     0.0459492  
H429     H      0.641150000000     0.263680000000     0.953750000000     0.0455512  
H430     H      0.594650000000     0.297250000000     0.466680000000     0.0409538  
H431     H      0.641310000000     0.265670000000     0.045080000000     0.0440044  
H432     H      0.601300000000     0.224070000000     0.536710000000     0.0322771  
H433     H      0.654450000000     0.302330000000     0.966640000000     0.0395862  
H434     H      0.610490000000     0.306580000000     0.505050000000     0.0417673  
H435     H      0.799380000000     0.384340000000     0.491320000000     0.0457542  
H436     H      0.758630000000     0.386120000000     0.540140000000     0.0430091  
H437     H      0.710210000000     0.416450000000     0.526500000000     0.0417455  
H438     H      0.788850000000     0.359260000000     0.958380000000     0.0475776  
H439     H      0.743030000000     0.392730000000     0.946130000000     0.0343043  
H440     H      0.724770000000     0.359550000000     0.537640000000     0.041972   
H441     H      0.702980000000     0.390660000000     0.992970000000     0.0425464  
H442     H      0.749150000000     0.136780000000     0.547130000000     0.0458956  
H443     H      0.698310000000     0.140520000000     0.010750000000     0.0410861  
H444     H      0.711730000000     0.170220000000     0.962450000000     0.0413685  
H445     H      0.778340000000     0.106680000000     0.537840000000     0.0466389  
H446     H      0.790480000000     0.134560000000     0.487540000000     0.0356486  
H447     H      0.696280000000     0.113590000000     0.977320000000     0.0425934  
H448     H      0.741250000000     0.140740000000     0.951710000000     0.0414432  
H449     H      0.703480000000     0.487330000000     0.900130000000     0.0464293  
H450     H      0.790320000000     0.018860000000     0.890000000000     0.0475433  
H451     H      0.784410000000     0.049490000000     0.840480000000     0.0403588  
H452     H      0.699600000000     0.523590000000     0.877850000000     0.0438787  
H453     H      0.711130000000     0.479110000000     0.841950000000     0.0313589  
H454     H      0.776490000000     0.058340000000     0.899320000000     0.0390324  
H455     H      0.744470000000     0.060740000000     0.850510000000     0.0424798  
H456     H      0.746160000000     0.449410000000     0.627780000000     0.0457142  
H457     H      0.791460000000     0.993140000000     0.626160000000     0.039756   
H458     H      0.777080000000     0.038020000000     0.592190000000     0.0414448  
H459     H      0.711540000000     0.458310000000     0.651570000000     0.0449596  
H460     H      0.695670000000     0.502010000000     0.616040000000     0.0359622  
H461     H      0.786160000000     0.028460000000     0.649910000000     0.0407073  
H462     H      0.742830000000     0.046610000000     0.615980000000     0.0415299  
H463     H      0.544620000000     0.242440000000     0.882510000000     0.0463518  
H464     H      0.505290000000     0.293700000000     0.880720000000     0.041847   
H465     H      0.959200000000     0.281520000000     0.847240000000     0.0410152  
H466     H      0.532680000000     0.209450000000     0.907130000000     0.0494788  
H467     H      0.986280000000     0.199480000000     0.873510000000     0.0378735  
H468     H      0.970050000000     0.291030000000     0.904920000000     0.0417954  
H469     H      0.948690000000     0.247750000000     0.871880000000     0.0416059  
H470     H      0.975360000000     0.205050000000     0.635100000000     0.0476335  
H471     H      0.539200000000     0.221930000000     0.636860000000     0.0420499  
H472     H      0.547750000000     0.264110000000     0.597810000000     0.034028   
H473     H      0.948820000000     0.232370000000     0.654630000000     0.0495428  
H474     H      0.960850000000     0.274610000000     0.616940000000     0.0352034  
H475     H      0.547680000000     0.258760000000     0.657310000000     0.0441796  
H476     H      0.519870000000     0.290260000000     0.617480000000     0.0418802  
H477     H      0.631300000000     0.057550000000     0.750260000000     0.0456591  
H478     H      0.629660000000     0.012150000000     0.792800000000     0.0404457  
H479     H      0.596390000000     0.467620000000     0.776300000000     0.0433752  
H480     H      0.655810000000     0.051080000000     0.715690000000     0.0454554  
H481     H      0.621090000000     0.507890000000     0.696830000000     0.0363299  
H482     H      0.654160000000     0.477410000000     0.786590000000     0.0406804  
H483     H      0.620970000000     0.460330000000     0.742380000000     0.0430068  
H484     H      0.860950000000     0.999690000000     0.691020000000     0.0434014  
H485     H      0.860410000000     0.444280000000     0.722690000000     0.0415586  
H486     H      0.903740000000     0.444170000000     0.761280000000     0.0377278  
H487     H      0.844710000000     0.034210000000     0.710530000000     0.0473486  
H488     H      0.887340000000     0.033320000000     0.750030000000     0.034365   
H489     H      0.843670000000     0.445380000000     0.762010000000     0.0424691  
H490     H      0.887420000000     0.478530000000     0.781370000000     0.0439202  
H491     H      0.508250000000     0.371620000000     0.787150000000     0.0480487  
H492     H      0.956780000000     0.371520000000     0.749960000000     0.0424538  
H493     H      0.970280000000     0.395590000000     0.698490000000     0.0393814  
H494     H      0.537720000000     0.341200000000     0.780060000000     0.0483088  
H495     H      0.548980000000     0.364330000000     0.727520000000     0.0343705  
H496     H      0.955160000000     0.341110000000     0.719620000000     0.0436603  
H497     H      0.000410000000     0.365470000000     0.691710000000     0.0373321  
H498     H      0.946460000000     0.102120000000     0.759450000000     0.044873   
H499     H      0.978500000000     0.112890000000     0.703960000000     0.0473848  
H500     H      0.522870000000     0.151100000000     0.710270000000     0.0390863  
H501     H      0.968700000000     0.082200000000     0.789840000000     0.0488822  
H502     H      0.505260000000     0.126040000000     0.795390000000     0.0335964  
H503     H      0.516570000000     0.093160000000     0.700750000000     0.0447077  
H504     H      0.538800000000     0.127690000000     0.742590000000     0.04387    
H505     H      0.879640000000     0.798990000000     0.009010000000     0.0483116  
H506     H      0.878370000000     0.769060000000     0.452920000000     0.0415041  
H507     H      0.906960000000     0.718290000000     0.458760000000     0.0384291  
H508     H      0.850770000000     0.786970000000     0.038030000000     0.0493172  
H509     H      0.875480000000     0.733510000000     0.041000000000     0.0357411  
H510     H      0.850210000000     0.736740000000     0.448700000000     0.043614   
H511     H      0.878560000000     0.704240000000     0.487720000000     0.0418893  
H512     H      0.660810000000     0.728590000000     0.536510000000     0.0459976  
H513     H      0.641150000000     0.763680000000     0.453750000000     0.0454776  
H514     H      0.594650000000     0.797250000000     0.966680000000     0.0407971  
H515     H      0.641310000000     0.765670000000     0.545080000000     0.0439929  
H516     H      0.601300000000     0.724070000000     0.036710000000     0.0323375  
H517     H      0.654450000000     0.802330000000     0.466640000000     0.0394355  
H518     H      0.610490000000     0.806580000000     0.005050000000     0.0410571  
H519     H      0.799380000000     0.884340000000     0.991320000000     0.0459161  
H520     H      0.758630000000     0.886120000000     0.040140000000     0.0428719  
H521     H      0.710210000000     0.916450000000     0.026500000000     0.0417846  
H522     H      0.788850000000     0.859260000000     0.458380000000     0.0475549  
H523     H      0.743030000000     0.892730000000     0.446130000000     0.0342425  
H524     H      0.724770000000     0.859550000000     0.037640000000     0.0418665  
H525     H      0.702980000000     0.890660000000     0.492970000000     0.0418722  
H526     H      0.749150000000     0.636780000000     0.047130000000     0.0457892  
H527     H      0.698310000000     0.640520000000     0.510750000000     0.0417757  
H528     H      0.711730000000     0.670220000000     0.462450000000     0.0412431  
H529     H      0.778340000000     0.606680000000     0.037840000000     0.0465089  
H530     H      0.790480000000     0.634560000000     0.987540000000     0.0363064  
H531     H      0.696280000000     0.613590000000     0.477320000000     0.0427178  
H532     H      0.741250000000     0.640740000000     0.451710000000     0.0413288  
H533     H      0.703480000000     0.987330000000     0.400130000000     0.0456595  
H534     H      0.790320000000     0.518860000000     0.390000000000     0.0473468  
H535     H      0.784410000000     0.549490000000     0.340480000000     0.0403302  
H536     H      0.699600000000     0.023580000000     0.377850000000     0.0436874  
H537     H      0.711130000000     0.979110000000     0.341950000000     0.0314438  
H538     H      0.776490000000     0.558340000000     0.399320000000     0.0389774  
H539     H      0.744470000000     0.560740000000     0.350510000000     0.042494   
H540     H      0.746160000000     0.949410000000     0.127780000000     0.0455926  
H541     H      0.791460000000     0.493140000000     0.126160000000     0.0404162  
H542     H      0.777080000000     0.538020000000     0.092190000000     0.0412537  
H543     H      0.711540000000     0.958310000000     0.151570000000     0.0448251  
H544     H      0.695670000000     0.002010000000     0.116040000000     0.0366424  
H545     H      0.786160000000     0.528460000000     0.149910000000     0.0408392  
H546     H      0.742830000000     0.546610000000     0.115990000000     0.0413935  
H547     H      0.544620000000     0.742440000000     0.382510000000     0.0463277  
H548     H      0.505290000000     0.793700000000     0.380720000000     0.0418011  
H549     H      0.959200000000     0.781520000000     0.347240000000     0.0409963  
H550     H      0.532680000000     0.709450000000     0.407130000000     0.0494145  
H551     H      0.986280000000     0.699480000000     0.373510000000     0.0378466  
H552     H      0.970050000000     0.791030000000     0.404920000000     0.0417146  
H553     H      0.948690000000     0.747750000000     0.371880000000     0.0415841  
H554     H      0.975360000000     0.705050000000     0.135100000000     0.0476078  
H555     H      0.539200000000     0.721920000000     0.136860000000     0.0420103  
H556     H      0.547750000000     0.764110000000     0.097810000000     0.03401    
H557     H      0.948820000000     0.732370000000     0.154630000000     0.0495384  
H558     H      0.960850000000     0.774610000000     0.116940000000     0.035189   
H559     H      0.547680000000     0.758760000000     0.157310000000     0.0441597  
H560     H      0.519870000000     0.790260000000     0.117480000000     0.0418599  
H561     H      0.631300000000     0.557550000000     0.250260000000     0.0456335  
H562     H      0.629660000000     0.512150000000     0.292800000000     0.0397616  
H563     H      0.596390000000     0.967620000000     0.276300000000     0.0433243  
H564     H      0.655810000000     0.551080000000     0.215690000000     0.0454474  
H565     H      0.621090000000     0.007890000000     0.196830000000     0.0365494  
H566     H      0.654160000000     0.977410000000     0.286590000000     0.0407911  
H567     H      0.620970000000     0.960330000000     0.242380000000     0.0429457  
H568     H      0.860950000000     0.499690000000     0.191020000000     0.044045   
H569     H      0.860410000000     0.944280000000     0.222690000000     0.0415251  
H570     H      0.903740000000     0.944170000000     0.261280000000     0.0376976  
H571     H      0.844710000000     0.534210000000     0.210530000000     0.0475031  
H572     H      0.887340000000     0.533320000000     0.250030000000     0.0342445  
H573     H      0.843670000000     0.945380000000     0.262010000000     0.0424456  
H574     H      0.887420000000     0.978530000000     0.281380000000     0.0437429  
H575     H      0.508250000000     0.871620000000     0.287150000000     0.0480199  
H576     H      0.956780000000     0.871530000000     0.249960000000     0.0424266  
H577     H      0.970280000000     0.895590000000     0.198490000000     0.0393675  
H578     H      0.537720000000     0.841200000000     0.280060000000     0.0482939  
H579     H      0.548980000000     0.864330000000     0.227520000000     0.0343568  
H580     H      0.955160000000     0.841110000000     0.219620000000     0.0436524  
H581     H      0.000410000000     0.865470000000     0.191710000000     0.0373223  
H582     H      0.946460000000     0.602120000000     0.259450000000     0.0448395  
H583     H      0.978500000000     0.612890000000     0.203960000000     0.047355   
H584     H      0.522870000000     0.651100000000     0.210270000000     0.0390992  
H585     H      0.968700000000     0.582200000000     0.289840000000     0.048782   
H586     H      0.505260000000     0.626040000000     0.295390000000     0.0335508  
H587     H      0.516570000000     0.593160000000     0.200750000000     0.0446365  
H588     H      0.538800000000     0.627690000000     0.242590000000     0.04387    
H589     H      0.879640000000     0.798990000000     0.509010000000     0.048393   
H590     H      0.878370000000     0.769060000000     0.952920000000     0.0416338  
H591     H      0.906960000000     0.718290000000     0.958760000000     0.0384348  
H592     H      0.850770000000     0.786970000000     0.538030000000     0.0493026  
H593     H      0.875480000000     0.733510000000     0.541000000000     0.0358642  
H594     H      0.850210000000     0.736740000000     0.948700000000     0.0436409  
H595     H      0.878560000000     0.704240000000     0.987720000000     0.0420147  
H596     H      0.660810000000     0.728590000000     0.036510000000     0.0459167  
H597     H      0.641150000000     0.763680000000     0.953750000000     0.0455482  
H598     H      0.594650000000     0.797250000000     0.466680000000     0.0409407  
H599     H      0.641310000000     0.765670000000     0.045080000000     0.0439909  
H600     H      0.601300000000     0.724070000000     0.536710000000     0.0322714  
H601     H      0.654450000000     0.802330000000     0.966640000000     0.0395804  
H602     H      0.610490000000     0.806580000000     0.505050000000     0.0417518  
H603     H      0.799380000000     0.884340000000     0.491320000000     0.0457265  
H604     H      0.758630000000     0.886120000000     0.540140000000     0.0429773  
H605     H      0.710210000000     0.916450000000     0.526500000000     0.0416986  
H606     H      0.788850000000     0.859260000000     0.958380000000     0.0475725  
H607     H      0.743030000000     0.892730000000     0.946130000000     0.0342781  
H608     H      0.724770000000     0.859550000000     0.537640000000     0.0419622  
H609     H      0.702980000000     0.890660000000     0.992970000000     0.0425476  
H610     H      0.749150000000     0.636780000000     0.547130000000     0.0458906  
H611     H      0.698310000000     0.640520000000     0.010750000000     0.0410528  
H612     H      0.711730000000     0.670220000000     0.962450000000     0.0413644  
H613     H      0.778340000000     0.606680000000     0.537840000000     0.0466198  
H614     H      0.790480000000     0.634560000000     0.487540000000     0.0356304  
H615     H      0.696280000000     0.613590000000     0.977320000000     0.042565   
H616     H      0.741250000000     0.640740000000     0.951710000000     0.0414396  
H617     H      0.703480000000     0.987330000000     0.900130000000     0.0457008  
H618     H      0.790320000000     0.518860000000     0.890000000000     0.0473725  
H619     H      0.784410000000     0.549490000000     0.840480000000     0.0403398  
H620     H      0.699600000000     0.023580000000     0.877850000000     0.0437131  
H621     H      0.711130000000     0.979110000000     0.841950000000     0.0314482  
H622     H      0.776490000000     0.558340000000     0.899320000000     0.0390162  
H623     H      0.744470000000     0.560740000000     0.850510000000     0.0425007  
H624     H      0.746160000000     0.949410000000     0.627780000000     0.0456216  
H625     H      0.791460000000     0.493140000000     0.626160000000     0.0404459  
H626     H      0.777080000000     0.538020000000     0.592190000000     0.041293   
H627     H      0.711540000000     0.958310000000     0.651570000000     0.044836   
H628     H      0.695670000000     0.002010000000     0.616040000000     0.0366535  
H629     H      0.786160000000     0.528460000000     0.649910000000     0.0408492  
H630     H      0.742830000000     0.546610000000     0.615980000000     0.041417   
H631     H      0.544620000000     0.742440000000     0.882510000000     0.0463492  
H632     H      0.505290000000     0.793700000000     0.880720000000     0.0418367  
H633     H      0.959200000000     0.781520000000     0.847240000000     0.0410105  
H634     H      0.532680000000     0.709450000000     0.907130000000     0.049466   
H635     H      0.986280000000     0.699480000000     0.873510000000     0.0378664  
H636     H      0.970050000000     0.791030000000     0.904920000000     0.0417834  
H637     H      0.948690000000     0.747750000000     0.871880000000     0.0416032  
H638     H      0.975360000000     0.705050000000     0.635100000000     0.0476262  
H639     H      0.539200000000     0.721920000000     0.636860000000     0.042029   
H640     H      0.547750000000     0.764110000000     0.597810000000     0.0340247  
H641     H      0.948820000000     0.732370000000     0.654630000000     0.0495415  
H642     H      0.960850000000     0.774610000000     0.616940000000     0.0351969  
H643     H      0.547680000000     0.758760000000     0.657310000000     0.0441684  
H644     H      0.519870000000     0.790260000000     0.617480000000     0.0418711  
H645     H      0.631300000000     0.557550000000     0.750260000000     0.0456373  
H646     H      0.629660000000     0.512150000000     0.792800000000     0.0397747  
H647     H      0.596390000000     0.967620000000     0.776300000000     0.0433401  
H648     H      0.655810000000     0.551080000000     0.715690000000     0.0454529  
H649     H      0.621090000000     0.007890000000     0.696830000000     0.0365586  
H650     H      0.654160000000     0.977410000000     0.786590000000     0.0407946  
H651     H      0.620970000000     0.960330000000     0.742380000000     0.0429542  
H652     H      0.860950000000     0.499690000000     0.691020000000     0.0440598  
H653     H      0.860410000000     0.944280000000     0.722690000000     0.041531   
H654     H      0.903740000000     0.944170000000     0.761280000000     0.0377209  
H655     H      0.844710000000     0.534210000000     0.710530000000     0.0475081  
H656     H      0.887340000000     0.533320000000     0.750030000000     0.0342517  
H657     H      0.843670000000     0.945380000000     0.762010000000     0.042448   
H658     H      0.887420000000     0.978530000000     0.781370000000     0.0437841  
H659     H      0.508250000000     0.871620000000     0.787150000000     0.0480394  
H660     H      0.956780000000     0.871530000000     0.749960000000     0.0424351  
H661     H      0.970280000000     0.895590000000     0.698490000000     0.0393829  
H662     H      0.537720000000     0.841200000000     0.780060000000     0.0483017  
H663     H      0.548980000000     0.864330000000     0.727520000000     0.0343613  
H664     H      0.955160000000     0.841110000000     0.719620000000     0.0436489  
H665     H      0.000410000000     0.865470000000     0.691710000000     0.0373331  
H666     H      0.946460000000     0.602120000000     0.759450000000     0.044848   
H667     H      0.978500000000     0.612890000000     0.703960000000     0.0473756  
H668     H      0.522870000000     0.651100000000     0.710270000000     0.0390808  
H669     H      0.968700000000     0.582200000000     0.789840000000     0.0488101  
H670     H      0.505260000000     0.626040000000     0.795390000000     0.0335644  
H671     H      0.516570000000     0.593160000000     0.700750000000     0.0446628  
H672     H      0.538800000000     0.627690000000     0.742590000000     0.0438525  
N1       N      0.408840000000     0.241080000000     0.004410000000    -0.175018   
N2       N      0.347800000000     0.263550000000     0.992370000000    -0.168283   
N3       N      0.093730000000     0.258910000000     0.000450000000    -0.175106   
N4       N      0.161860000000     0.264100000000     0.999470000000    -0.168487   
N5       N      0.243040000000     0.421070000000     0.487550000000    -0.173229   
N6       N      0.258220000000     0.356890000000     0.499180000000    -0.169444   
N7       N      0.254310000000     0.169580000000     0.490960000000    -0.173472   
N8       N      0.236490000000     0.107540000000     0.008360000000    -0.169735   
N9       N      0.249830000000     0.512010000000     0.337370000000    -0.174802   
N10      N      0.242080000000     0.521130000000     0.404390000000    -0.168501   
N11      N      0.238130000000     0.004280000000     0.088930000000    -0.172532   
N12      N      0.249310000000     0.492600000000     0.153220000000    -0.170299   
N13      N      0.490390000000     0.240650000000     0.344620000000    -0.173436   
N14      N      0.503060000000     0.251670000000     0.408770000000    -0.169061   
N15      N      0.998680000000     0.251130000000     0.093610000000    -0.169871   
N16      N      0.499060000000     0.242220000000     0.159470000000    -0.168055   
N17      N      0.093320000000     0.002440000000     0.238460000000    -0.171686   
N18      N      0.157490000000     0.014660000000     0.251350000000    -0.170113   
N19      N      0.408010000000     0.989040000000     0.236760000000    -0.173128   
N20      N      0.341000000000     0.989230000000     0.235480000000    -0.169632   
N21      N      0.012130000000     0.398750000000     0.227770000000    -0.17632    
N22      N      0.995230000000     0.338720000000     0.251510000000    -0.167413   
N23      N      0.995330000000     0.151080000000     0.253130000000    -0.172614   
N24      N      0.990410000000     0.084490000000     0.243810000000    -0.166301   
N25      N      0.408840000000     0.241080000000     0.504410000000    -0.174834   
N26      N      0.347800000000     0.263550000000     0.492370000000    -0.168521   
N27      N      0.093730000000     0.258910000000     0.500450000000    -0.174879   
N28      N      0.161860000000     0.264100000000     0.499470000000    -0.168728   
N29      N      0.243040000000     0.421070000000     0.987560000000    -0.172851   
N30      N      0.258220000000     0.356890000000     0.999180000000    -0.169272   
N31      N      0.254310000000     0.169580000000     0.990960000000    -0.173142   
N32      N      0.236490000000     0.107540000000     0.508360000000    -0.169371   
N33      N      0.249830000000     0.512010000000     0.837370000000    -0.174801   
N34      N      0.242080000000     0.521130000000     0.904390000000    -0.168505   
N35      N      0.238130000000     0.004280000000     0.588930000000    -0.172495   
N36      N      0.249310000000     0.492600000000     0.653220000000    -0.170295   
N37      N      0.490390000000     0.240650000000     0.844620000000    -0.173435   
N38      N      0.503060000000     0.251670000000     0.908770000000    -0.169008   
N39      N      0.998680000000     0.251130000000     0.593610000000    -0.169872   
N40      N      0.499060000000     0.242220000000     0.659470000000    -0.168053   
N41      N      0.093320000000     0.002440000000     0.738460000000    -0.171691   
N42      N      0.157490000000     0.014660000000     0.751350000000    -0.170119   
N43      N      0.408010000000     0.989040000000     0.736760000000    -0.173104   
N44      N      0.341000000000     0.989230000000     0.735480000000    -0.169626   
N45      N      0.012130000000     0.398750000000     0.727770000000    -0.176308   
N46      N      0.995230000000     0.338720000000     0.751510000000    -0.167422   
N47      N      0.995330000000     0.151080000000     0.753130000000    -0.172627   
N48      N      0.990410000000     0.084490000000     0.743810000000    -0.166238   
N49      N      0.408840000000     0.741090000000     0.004410000000    -0.175039   
N50      N      0.347800000000     0.763550000000     0.992370000000    -0.168273   
N51      N      0.093730000000     0.758910000000     0.000450000000    -0.175112   
N52      N      0.161860000000     0.764100000000     0.999470000000    -0.168499   
N53      N      0.243040000000     0.921070000000     0.487550000000    -0.173275   
N54      N      0.258220000000     0.856890000000     0.499180000000    -0.169447   
N55      N      0.254310000000     0.669580000000     0.490960000000    -0.173473   
N56      N      0.236490000000     0.607540000000     0.008360000000    -0.169741   
N57      N      0.249830000000     0.012010000000     0.337370000000    -0.174544   
N58      N      0.242080000000     0.021130000000     0.404390000000    -0.168611   
N59      N      0.238130000000     0.504280000000     0.088930000000    -0.173006   
N60      N      0.249310000000     0.992600000000     0.153220000000    -0.170631   
N61      N      0.490390000000     0.740650000000     0.344620000000    -0.173436   
N62      N      0.503060000000     0.751670000000     0.408770000000    -0.169064   
N63      N      0.998680000000     0.751130000000     0.093610000000    -0.169866   
N64      N      0.499060000000     0.742220000000     0.159470000000    -0.168055   
N65      N      0.093320000000     0.502440000000     0.238460000000    -0.172329   
N66      N      0.157490000000     0.514660000000     0.251350000000    -0.170337   
N67      N      0.408010000000     0.489040000000     0.236760000000    -0.172889   
N68      N      0.341000000000     0.489230000000     0.235480000000    -0.169346   
N69      N      0.012130000000     0.898760000000     0.227770000000    -0.176318   
N70      N      0.995230000000     0.838720000000     0.251510000000    -0.167427   
N71      N      0.995330000000     0.651080000000     0.253130000000    -0.172611   
N72      N      0.990410000000     0.584490000000     0.243810000000    -0.166335   
N73      N      0.408840000000     0.741090000000     0.504410000000    -0.17485    
N74      N      0.347800000000     0.763550000000     0.492370000000    -0.168518   
N75      N      0.093730000000     0.758910000000     0.500450000000    -0.17488    
N76      N      0.161860000000     0.764100000000     0.499470000000    -0.168746   
N77      N      0.243040000000     0.921070000000     0.987560000000    -0.172885   
N78      N      0.258220000000     0.856890000000     0.999180000000    -0.169271   
N79      N      0.254310000000     0.669580000000     0.990960000000    -0.173135   
N80      N      0.236490000000     0.607540000000     0.508360000000    -0.169368   
N81      N      0.249830000000     0.012010000000     0.837370000000    -0.17455    
N82      N      0.242080000000     0.021130000000     0.904390000000    -0.168612   
N83      N      0.238130000000     0.504280000000     0.588930000000    -0.172956   
N84      N      0.249310000000     0.992600000000     0.653220000000    -0.170617   
N85      N      0.490390000000     0.740650000000     0.844620000000    -0.173435   
N86      N      0.503060000000     0.751670000000     0.908770000000    -0.16901    
N87      N      0.998680000000     0.751130000000     0.593610000000    -0.169868   
N88      N      0.499060000000     0.742220000000     0.659470000000    -0.168052   
N89      N      0.093320000000     0.502440000000     0.738460000000    -0.172319   
N90      N      0.157490000000     0.514660000000     0.751350000000    -0.170337   
N91      N      0.408010000000     0.489040000000     0.736760000000    -0.17287    
N92      N      0.341000000000     0.489230000000     0.735480000000    -0.169346   
N93      N      0.012130000000     0.898760000000     0.727770000000    -0.176306   
N94      N      0.995230000000     0.838720000000     0.751510000000    -0.167436   
N95      N      0.995330000000     0.651080000000     0.753130000000    -0.172624   
N96      N      0.990410000000     0.584490000000     0.743810000000    -0.166272   
N97      N      0.908840000000     0.241080000000     0.004410000000    -0.174873   
N98      N      0.847800000000     0.263550000000     0.992370000000    -0.168272   
N99      N      0.593730000000     0.258910000000     0.000450000000    -0.174992   
N100     N      0.661860000000     0.264100000000     0.999470000000    -0.168493   
N101     N      0.743040000000     0.421070000000     0.487550000000    -0.173208   
N102     N      0.758220000000     0.356890000000     0.499180000000    -0.169432   
N103     N      0.754310000000     0.169580000000     0.490960000000    -0.173466   
N104     N      0.736490000000     0.107540000000     0.008360000000    -0.169772   
N105     N      0.749830000000     0.512010000000     0.337370000000    -0.174796   
N106     N      0.742080000000     0.521130000000     0.404390000000    -0.168484   
N107     N      0.738130000000     0.004280000000     0.088930000000    -0.172518   
N108     N      0.749310000000     0.492600000000     0.153220000000    -0.170291   
N109     N      0.990390000000     0.240650000000     0.344620000000    -0.171508   
N110     N      0.003060000000     0.251670000000     0.408770000000    -0.17107    
N111     N      0.498680000000     0.251130000000     0.093610000000    -0.174212   
N112     N      0.999050000000     0.242220000000     0.159470000000    -0.166934   
N113     N      0.593320000000     0.002440000000     0.238460000000    -0.171713   
N114     N      0.657490000000     0.014660000000     0.251350000000    -0.170114   
N115     N      0.908010000000     0.989040000000     0.236760000000    -0.172825   
N116     N      0.841000000000     0.989230000000     0.235480000000    -0.169623   
N117     N      0.512120000000     0.398750000000     0.227770000000    -0.174116   
N118     N      0.495230000000     0.338720000000     0.251510000000    -0.168954   
N119     N      0.495330000000     0.151080000000     0.253130000000    -0.173054   
N120     N      0.490410000000     0.084490000000     0.243810000000    -0.168975   
N121     N      0.908840000000     0.241080000000     0.504410000000    -0.17469    
N122     N      0.847800000000     0.263550000000     0.492370000000    -0.168508   
N123     N      0.593730000000     0.258910000000     0.500450000000    -0.174764   
N124     N      0.661860000000     0.264100000000     0.499470000000    -0.168735   
N125     N      0.743040000000     0.421070000000     0.987560000000    -0.172831   
N126     N      0.758220000000     0.356890000000     0.999180000000    -0.169261   
N127     N      0.754310000000     0.169580000000     0.990960000000    -0.173138   
N128     N      0.736490000000     0.107540000000     0.508360000000    -0.169408   
N129     N      0.749830000000     0.512010000000     0.837370000000    -0.174796   
N130     N      0.742080000000     0.521130000000     0.904390000000    -0.168489   
N131     N      0.738130000000     0.004280000000     0.588930000000    -0.17248    
N132     N      0.749310000000     0.492600000000     0.653220000000    -0.170288   
N133     N      0.990390000000     0.240650000000     0.844620000000    -0.171512   
N134     N      0.003060000000     0.251670000000     0.908770000000    -0.171014   
N135     N      0.498680000000     0.251130000000     0.593610000000    -0.17422    
N136     N      0.999050000000     0.242220000000     0.659470000000    -0.166931   
N137     N      0.593320000000     0.002440000000     0.738460000000    -0.171718   
N138     N      0.657490000000     0.014660000000     0.751350000000    -0.17012    
N139     N      0.908010000000     0.989040000000     0.736760000000    -0.172801   
N140     N      0.841000000000     0.989230000000     0.735480000000    -0.169616   
N141     N      0.512120000000     0.398750000000     0.727770000000    -0.174104   
N142     N      0.495230000000     0.338720000000     0.751510000000    -0.168962   
N143     N      0.495330000000     0.151080000000     0.753130000000    -0.173067   
N144     N      0.490410000000     0.084490000000     0.743810000000    -0.168911   
N145     N      0.908840000000     0.741090000000     0.004410000000    -0.174894   
N146     N      0.847800000000     0.763550000000     0.992370000000    -0.168263   
N147     N      0.593730000000     0.758910000000     0.000450000000    -0.174998   
N148     N      0.661860000000     0.764100000000     0.999470000000    -0.168506   
N149     N      0.743040000000     0.921070000000     0.487550000000    -0.173253   
N150     N      0.758220000000     0.856890000000     0.499180000000    -0.169435   
N151     N      0.754310000000     0.669580000000     0.490960000000    -0.173468   
N152     N      0.736490000000     0.607540000000     0.008360000000    -0.169778   
N153     N      0.749830000000     0.012010000000     0.337370000000    -0.174541   
N154     N      0.742080000000     0.021130000000     0.404390000000    -0.168593   
N155     N      0.738130000000     0.504280000000     0.088930000000    -0.172987   
N156     N      0.749310000000     0.992600000000     0.153220000000    -0.17062    
N157     N      0.990390000000     0.740650000000     0.344620000000    -0.171504   
N158     N      0.003060000000     0.751670000000     0.408770000000    -0.171075   
N159     N      0.498680000000     0.751130000000     0.093610000000    -0.174215   
N160     N      0.999050000000     0.742220000000     0.159470000000    -0.166932   
N161     N      0.593320000000     0.502440000000     0.238460000000    -0.172352   
N162     N      0.657490000000     0.514660000000     0.251350000000    -0.170337   
N163     N      0.908010000000     0.489040000000     0.236760000000    -0.172587   
N164     N      0.841000000000     0.489230000000     0.235480000000    -0.16934    
N165     N      0.512120000000     0.898760000000     0.227770000000    -0.174116   
N166     N      0.495230000000     0.838720000000     0.251510000000    -0.168967   
N167     N      0.495330000000     0.651080000000     0.253130000000    -0.173052   
N168     N      0.490410000000     0.584490000000     0.243810000000    -0.169021   
N169     N      0.908840000000     0.741090000000     0.504410000000    -0.174705   
N170     N      0.847800000000     0.763550000000     0.492370000000    -0.168504   
N171     N      0.593730000000     0.758910000000     0.500450000000    -0.174765   
N172     N      0.661860000000     0.764100000000     0.499470000000    -0.168753   
N173     N      0.743040000000     0.921070000000     0.987560000000    -0.172864   
N174     N      0.758220000000     0.856890000000     0.999180000000    -0.16926    
N175     N      0.754310000000     0.669580000000     0.990960000000    -0.173131   
N176     N      0.736490000000     0.607540000000     0.508360000000    -0.169405   
N177     N      0.749830000000     0.012010000000     0.837370000000    -0.174547   
N178     N      0.742080000000     0.021130000000     0.904390000000    -0.168594   
N179     N      0.738130000000     0.504280000000     0.588930000000    -0.172937   
N180     N      0.749310000000     0.992600000000     0.653220000000    -0.170606   
N181     N      0.990390000000     0.740650000000     0.844620000000    -0.171508   
N182     N      0.003060000000     0.751670000000     0.908770000000    -0.171018   
N183     N      0.498680000000     0.751130000000     0.593610000000    -0.174223   
N184     N      0.999050000000     0.742220000000     0.659470000000    -0.166929   
N185     N      0.593320000000     0.502440000000     0.738460000000    -0.172342   
N186     N      0.657490000000     0.514660000000     0.751350000000    -0.170337   
N187     N      0.908010000000     0.489040000000     0.736760000000    -0.172569   
N188     N      0.841000000000     0.489230000000     0.735480000000    -0.16934    
N189     N      0.512120000000     0.898760000000     0.727770000000    -0.174105   
N190     N      0.495230000000     0.838720000000     0.751510000000    -0.168975   
N191     N      0.495330000000     0.651080000000     0.753130000000    -0.173066   
N192     N      0.490410000000     0.584490000000     0.743810000000    -0.168956   
Ni1      Ni     0.000700000000     0.988690000000     0.264640000000     0.988688   
Ni2      Ni     0.000990000000     0.494260000000     0.208480000000     1.00203    
Ni3      Ni     0.466740000000     0.244910000000     0.251100000000     0.994093   
Ni4      Ni     0.023150000000     0.244710000000     0.253400000000     0.999715   
Ni5      Ni     0.245490000000     0.473990000000     0.248400000000     0.999634   
Ni6      Ni     0.253300000000     0.030290000000     0.241960000000     1.00545    
Ni7      Ni     0.211400000000     0.013140000000     0.996120000000     0.997859   
Ni8      Ni     0.267960000000     0.515680000000     0.997480000000     1.006      
Ni9      Ni     0.003600000000     0.222580000000     0.001310000000     0.988353   
Ni10     Ni     0.998360000000     0.279270000000     0.501430000000     1.0041     
Ni11     Ni     0.255770000000     0.262160000000     0.023350000000     1.00392    
Ni12     Ni     0.253760000000     0.264520000000     0.467310000000     0.987715   
Ni13     Ni     0.000700000000     0.988690000000     0.764630000000     0.988626   
Ni14     Ni     0.000990000000     0.494260000000     0.708480000000     1.00183    
Ni15     Ni     0.466740000000     0.244910000000     0.751100000000     0.99412    
Ni16     Ni     0.023150000000     0.244710000000     0.753400000000     0.999711   
Ni17     Ni     0.245490000000     0.473990000000     0.748400000000     0.999632   
Ni18     Ni     0.253300000000     0.030290000000     0.741960000000     1.00544    
Ni19     Ni     0.211400000000     0.013140000000     0.496120000000     0.997307   
Ni20     Ni     0.267960000000     0.515680000000     0.497480000000     1.00468    
Ni21     Ni     0.003600000000     0.222580000000     0.501310000000     0.989526   
Ni22     Ni     0.998360000000     0.279270000000     0.001430000000     1.00291    
Ni23     Ni     0.255770000000     0.262160000000     0.523350000000     1.00425    
Ni24     Ni     0.253760000000     0.264520000000     0.967310000000     0.988512   
Ni25     Ni     0.000700000000     0.488690000000     0.264640000000     0.989479   
Ni26     Ni     0.000990000000     0.994260000000     0.208480000000     1.00143    
Ni27     Ni     0.466740000000     0.744910000000     0.251100000000     0.993879   
Ni28     Ni     0.023150000000     0.744710000000     0.253400000000     0.999755   
Ni29     Ni     0.245490000000     0.973980000000     0.248400000000     0.999074   
Ni30     Ni     0.253300000000     0.530290000000     0.241960000000     1.00461    
Ni31     Ni     0.211400000000     0.513140000000     0.996120000000     0.997168   
Ni32     Ni     0.267960000000     0.015680000000     0.997480000000     1.00663    
Ni33     Ni     0.003600000000     0.722580000000     0.001310000000     0.988271   
Ni34     Ni     0.998360000000     0.779270000000     0.501430000000     1.0041     
Ni35     Ni     0.255770000000     0.762160000000     0.023350000000     1.00394    
Ni36     Ni     0.253760000000     0.764520000000     0.467310000000     0.987715   
Ni37     Ni     0.000700000000     0.488690000000     0.764630000000     0.989402   
Ni38     Ni     0.000990000000     0.994260000000     0.708480000000     1.00125    
Ni39     Ni     0.466740000000     0.744910000000     0.751100000000     0.993906   
Ni40     Ni     0.023150000000     0.744710000000     0.753400000000     0.999751   
Ni41     Ni     0.245490000000     0.973980000000     0.748400000000     0.999086   
Ni42     Ni     0.253300000000     0.530290000000     0.741960000000     1.00461    
Ni43     Ni     0.211400000000     0.513140000000     0.496120000000     0.996583   
Ni44     Ni     0.267960000000     0.015680000000     0.497480000000     1.00537    
Ni45     Ni     0.003600000000     0.722580000000     0.501310000000     0.989476   
Ni46     Ni     0.998360000000     0.779270000000     0.001430000000     1.00287    
Ni47     Ni     0.255770000000     0.762160000000     0.523350000000     1.00428    
Ni48     Ni     0.253760000000     0.764520000000     0.967310000000     0.988531   
Ni49     Ni     0.500700000000     0.988690000000     0.264640000000     0.995265   
Ni50     Ni     0.500990000000     0.494260000000     0.208480000000     1.00872    
Ni51     Ni     0.966740000000     0.244910000000     0.251100000000     0.998647   
Ni52     Ni     0.523150000000     0.244710000000     0.253400000000     1.00167    
Ni53     Ni     0.745480000000     0.473990000000     0.248400000000     0.999645   
Ni54     Ni     0.753300000000     0.030290000000     0.241960000000     1.00544    
Ni55     Ni     0.711400000000     0.013140000000     0.996120000000     0.998005   
Ni56     Ni     0.767960000000     0.515680000000     0.997480000000     1.00615    
Ni57     Ni     0.503600000000     0.222580000000     0.001310000000     1.00126    
Ni58     Ni     0.498360000000     0.279270000000     0.501430000000     0.992324   
Ni59     Ni     0.755770000000     0.262160000000     0.023350000000     1.0039     
Ni60     Ni     0.753760000000     0.264520000000     0.467310000000     0.987702   
Ni61     Ni     0.500700000000     0.988690000000     0.764630000000     0.995197   
Ni62     Ni     0.500990000000     0.494260000000     0.708480000000     1.00853    
Ni63     Ni     0.966740000000     0.244910000000     0.751100000000     0.99867    
Ni64     Ni     0.523150000000     0.244710000000     0.753400000000     1.00167    
Ni65     Ni     0.745480000000     0.473990000000     0.748400000000     0.999643   
Ni66     Ni     0.753300000000     0.030290000000     0.741960000000     1.00543    
Ni67     Ni     0.711400000000     0.013140000000     0.496120000000     0.997455   
Ni68     Ni     0.767960000000     0.515680000000     0.497480000000     1.00485    
Ni69     Ni     0.503600000000     0.222580000000     0.501310000000     1.00248    
Ni70     Ni     0.498360000000     0.279270000000     0.001430000000     0.991147   
Ni71     Ni     0.755770000000     0.262160000000     0.523350000000     1.00423    
Ni72     Ni     0.753760000000     0.264520000000     0.967310000000     0.988496   
Ni73     Ni     0.500700000000     0.488690000000     0.264640000000     0.996082   
Ni74     Ni     0.500990000000     0.994260000000     0.208480000000     1.0081     
Ni75     Ni     0.966740000000     0.744910000000     0.251100000000     0.99844    
Ni76     Ni     0.523150000000     0.744710000000     0.253400000000     1.00172    
Ni77     Ni     0.745480000000     0.973980000000     0.248400000000     0.99909    
Ni78     Ni     0.753300000000     0.530290000000     0.241960000000     1.00461    
Ni79     Ni     0.711400000000     0.513140000000     0.996120000000     0.997321   
Ni80     Ni     0.767960000000     0.015680000000     0.997480000000     1.00678    
Ni81     Ni     0.503600000000     0.722580000000     0.001310000000     1.0012     
Ni82     Ni     0.498360000000     0.779270000000     0.501430000000     0.992306   
Ni83     Ni     0.755770000000     0.762160000000     0.023350000000     1.00392    
Ni84     Ni     0.753760000000     0.764520000000     0.467310000000     0.987702   
Ni85     Ni     0.500700000000     0.488690000000     0.764630000000     0.995999   
Ni86     Ni     0.500990000000     0.994260000000     0.708480000000     1.00792    
Ni87     Ni     0.966740000000     0.744910000000     0.751100000000     0.998463   
Ni88     Ni     0.523150000000     0.744710000000     0.753400000000     1.00171    
Ni89     Ni     0.745480000000     0.973980000000     0.748400000000     0.999101   
Ni90     Ni     0.753300000000     0.530290000000     0.741960000000     1.00461    
Ni91     Ni     0.711400000000     0.513140000000     0.496120000000     0.996738   
Ni92     Ni     0.767960000000     0.015680000000     0.497480000000     1.00553    
Ni93     Ni     0.503600000000     0.722580000000     0.501310000000     1.00245    
Ni94     Ni     0.498360000000     0.779270000000     0.001430000000     0.991097   
Ni95     Ni     0.755770000000     0.762160000000     0.523350000000     1.00426    
Ni96     Ni     0.753760000000     0.764520000000     0.967310000000     0.988515   
O1       O      0.493740000000     0.034420000000     0.266540000000    -0.444955   
O2       O      0.007790000000     0.443700000000     0.258690000000    -0.446281   
O3       O      0.045740000000     0.995020000000     0.263500000000    -0.448393   
O4       O      0.455590000000     0.482440000000     0.262170000000    -0.449204   
O5       O      0.455510000000     0.991930000000     0.210260000000    -0.4467     
O6       O      0.046480000000     0.497620000000     0.210780000000    -0.444585   
O7       O      0.503440000000     0.448290000000     0.206280000000    -0.449146   
O8       O      0.998510000000     0.039440000000     0.214270000000    -0.448437   
O9       O      0.468610000000     0.198990000000     0.254910000000    -0.442631   
O10      O      0.468880000000     0.290750000000     0.247500000000    -0.447193   
O11      O      0.470690000000     0.241410000000     0.205980000000    -0.447986   
O12      O      0.466740000000     0.248250000000     0.296410000000    -0.447098   
O13      O      0.019170000000     0.241050000000     0.298470000000    -0.449148   
O14      O      0.023170000000     0.247620000000     0.208040000000    -0.451732   
O15      O      0.021020000000     0.290570000000     0.256630000000    -0.452652   
O16      O      0.021380000000     0.199030000000     0.250140000000    -0.453562   
O17      O      0.291040000000     0.469510000000     0.245810000000    -0.446973   
O18      O      0.200980000000     0.482110000000     0.251290000000    -0.452298   
O19      O      0.242450000000     0.471460000000     0.202880000000    -0.446876   
O20      O      0.248010000000     0.480500000000     0.293090000000    -0.449125   
O21      O      0.254890000000     0.033190000000     0.287430000000    -0.449118   
O22      O      0.252270000000     0.023700000000     0.197370000000    -0.453498   
O23      O      0.207640000000     0.034440000000     0.242760000000    -0.448157   
O24      O      0.297890000000     0.022200000000     0.240400000000    -0.452035   
O25      O      0.211710000000     0.059370000000     0.498730000000    -0.445314   
O26      O      0.214990000000     0.467530000000     0.993760000000    -0.449361   
O27      O      0.212110000000     0.009650000000     0.041410000000    -0.445188   
O28      O      0.214560000000     0.515600000000     0.450870000000    -0.448864   
O29      O      0.267030000000     0.022740000000     0.452580000000    -0.448012   
O30      O      0.265110000000     0.509100000000     0.042240000000    -0.450877   
O31      O      0.267790000000     0.470130000000     0.490260000000    -0.444709   
O32      O      0.264320000000     0.060680000000     0.004820000000    -0.452894   
O33      O      0.499340000000     0.224280000000     0.046580000000    -0.44399    
O34      O      0.007530000000     0.225180000000     0.456140000000    -0.446545   
O35      O      0.048490000000     0.228800000000     0.005230000000    -0.447596   
O36      O      0.458300000000     0.220110000000     0.497320000000    -0.448294   
O37      O      0.453310000000     0.272690000000     0.005570000000    -0.444423   
O38      O      0.043910000000     0.281440000000     0.497500000000    -0.448861   
O39      O      0.494820000000     0.277010000000     0.456210000000    -0.448321   
O40      O      0.002140000000     0.277730000000     0.046620000000    -0.44934    
O41      O      0.258990000000     0.216430000000     0.019210000000    -0.44591    
O42      O      0.252470000000     0.308090000000     0.023340000000    -0.44897    
O43      O      0.210470000000     0.258890000000     0.023050000000    -0.452085   
O44      O      0.300960000000     0.265680000000     0.019850000000    -0.45147    
O45      O      0.299310000000     0.259810000000     0.467500000000    -0.444176   
O46      O      0.208350000000     0.269170000000     0.471350000000    -0.444131   
O47      O      0.258940000000     0.310030000000     0.471040000000    -0.447891   
O48      O      0.249000000000     0.218750000000     0.467490000000    -0.446736   
O49      O      0.493740000000     0.034420000000     0.766550000000    -0.44474    
O50      O      0.007790000000     0.443700000000     0.758690000000    -0.446242   
O51      O      0.045740000000     0.995020000000     0.763500000000    -0.448443   
O52      O      0.455590000000     0.482440000000     0.762170000000    -0.449158   
O53      O      0.455510000000     0.991930000000     0.710260000000    -0.446656   
O54      O      0.046480000000     0.497620000000     0.710780000000    -0.444444   
O55      O      0.503440000000     0.448290000000     0.706280000000    -0.449102   
O56      O      0.998510000000     0.039440000000     0.714270000000    -0.44835    
O57      O      0.468610000000     0.198990000000     0.754910000000    -0.442637   
O58      O      0.468880000000     0.290750000000     0.747510000000    -0.447232   
O59      O      0.470690000000     0.241410000000     0.705980000000    -0.448      
O60      O      0.466740000000     0.248250000000     0.796410000000    -0.447086   
O61      O      0.019170000000     0.241050000000     0.798470000000    -0.449141   
O62      O      0.023170000000     0.247620000000     0.708040000000    -0.451734   
O63      O      0.021020000000     0.290570000000     0.756630000000    -0.452661   
O64      O      0.021380000000     0.199030000000     0.750140000000    -0.453561   
O65      O      0.291040000000     0.469510000000     0.745810000000    -0.446971   
O66      O      0.200980000000     0.482110000000     0.751290000000    -0.452297   
O67      O      0.242450000000     0.471460000000     0.702880000000    -0.446874   
O68      O      0.248010000000     0.480500000000     0.793090000000    -0.449125   
O69      O      0.254890000000     0.033190000000     0.787430000000    -0.449114   
O70      O      0.252270000000     0.023700000000     0.697370000000    -0.453507   
O71      O      0.207640000000     0.034440000000     0.742760000000    -0.448152   
O72      O      0.297890000000     0.022200000000     0.740400000000    -0.452046   
O73      O      0.211710000000     0.059370000000     0.998730000000    -0.444739   
O74      O      0.214990000000     0.467530000000     0.493760000000    -0.449506   
O75      O      0.212110000000     0.009650000000     0.541410000000    -0.444732   
O76      O      0.214560000000     0.515600000000     0.950870000000    -0.448948   
O77      O      0.267030000000     0.022740000000     0.952580000000    -0.448131   
O78      O      0.265110000000     0.509100000000     0.542240000000    -0.450338   
O79      O      0.267790000000     0.470130000000     0.990260000000    -0.444736   
O80      O      0.264320000000     0.060680000000     0.504820000000    -0.452498   
O81      O      0.499340000000     0.224280000000     0.546580000000    -0.444111   
O82      O      0.007530000000     0.225180000000     0.956140000000    -0.446033   
O83      O      0.048490000000     0.228800000000     0.505230000000    -0.447797   
O84      O      0.458300000000     0.220110000000     0.997320000000    -0.447175   
O85      O      0.453310000000     0.272690000000     0.505570000000    -0.444675   
O86      O      0.043910000000     0.281440000000     0.997500000000    -0.44774    
O87      O      0.494820000000     0.277010000000     0.956210000000    -0.447789   
O88      O      0.002140000000     0.277730000000     0.546620000000    -0.44947    
O89      O      0.258990000000     0.216430000000     0.519210000000    -0.445367   
O90      O      0.252470000000     0.308090000000     0.523340000000    -0.448386   
O91      O      0.210470000000     0.258890000000     0.523050000000    -0.451514   
O92      O      0.300960000000     0.265680000000     0.519850000000    -0.450902   
O93      O      0.299310000000     0.259810000000     0.967500000000    -0.444383   
O94      O      0.208350000000     0.269170000000     0.971350000000    -0.444345   
O95      O      0.258940000000     0.310030000000     0.971040000000    -0.44811    
O96      O      0.249000000000     0.218750000000     0.967490000000    -0.446948   
O97      O      0.493740000000     0.534420000000     0.266540000000    -0.445512   
O98      O      0.007790000000     0.943690000000     0.258690000000    -0.446204   
O99      O      0.045740000000     0.495020000000     0.263500000000    -0.448462   
O100     O      0.455590000000     0.982440000000     0.262170000000    -0.449209   
O101     O      0.455510000000     0.491930000000     0.210260000000    -0.446589   
O102     O      0.046480000000     0.997610000000     0.210780000000    -0.444609   
O103     O      0.503440000000     0.948290000000     0.206280000000    -0.449194   
O104     O      0.998510000000     0.539440000000     0.214270000000    -0.448906   
O105     O      0.468610000000     0.698990000000     0.254910000000    -0.442584   
O106     O      0.468880000000     0.790760000000     0.247500000000    -0.447142   
O107     O      0.470690000000     0.741400000000     0.205980000000    -0.447938   
O108     O      0.466740000000     0.748250000000     0.296410000000    -0.447072   
O109     O      0.019170000000     0.741050000000     0.298470000000    -0.449155   
O110     O      0.023170000000     0.747620000000     0.208040000000    -0.451736   
O111     O      0.021020000000     0.790570000000     0.256630000000    -0.452691   
O112     O      0.021380000000     0.699030000000     0.250140000000    -0.453569   
O113     O      0.291040000000     0.969510000000     0.245810000000    -0.446778   
O114     O      0.200980000000     0.982110000000     0.251290000000    -0.452893   
O115     O      0.242450000000     0.971450000000     0.202880000000    -0.446603   
O116     O      0.248010000000     0.980500000000     0.293090000000    -0.449652   
O117     O      0.254890000000     0.533190000000     0.287430000000    -0.448919   
O118     O      0.252270000000     0.523700000000     0.197370000000    -0.454036   
O119     O      0.207640000000     0.534450000000     0.242760000000    -0.447789   
O120     O      0.297890000000     0.522200000000     0.240400000000    -0.45241    
O121     O      0.211710000000     0.559370000000     0.498730000000    -0.445215   
O122     O      0.214990000000     0.967530000000     0.993760000000    -0.449847   
O123     O      0.212110000000     0.509650000000     0.041410000000    -0.445332   
O124     O      0.214560000000     0.015600000000     0.450870000000    -0.448775   
O125     O      0.267030000000     0.522740000000     0.452580000000    -0.448035   
O126     O      0.265110000000     0.009100000000     0.042240000000    -0.450753   
O127     O      0.267790000000     0.970130000000     0.490260000000    -0.445218   
O128     O      0.264320000000     0.560680000000     0.004820000000    -0.452803   
O129     O      0.499340000000     0.724280000000     0.046580000000    -0.443999   
O130     O      0.007530000000     0.725180000000     0.456140000000    -0.446553   
O131     O      0.048490000000     0.728800000000     0.005230000000    -0.447597   
O132     O      0.458300000000     0.720110000000     0.497320000000    -0.448317   
O133     O      0.453310000000     0.772690000000     0.005570000000    -0.444423   
O134     O      0.043910000000     0.781440000000     0.497500000000    -0.448874   
O135     O      0.494820000000     0.777010000000     0.456210000000    -0.448329   
O136     O      0.002140000000     0.777730000000     0.046620000000    -0.449346   
O137     O      0.258990000000     0.716430000000     0.019210000000    -0.445936   
O138     O      0.252470000000     0.808090000000     0.023340000000    -0.448979   
O139     O      0.210470000000     0.758900000000     0.023050000000    -0.452144   
O140     O      0.300960000000     0.765680000000     0.019850000000    -0.451489   
O141     O      0.299310000000     0.759810000000     0.467500000000    -0.444177   
O142     O      0.208350000000     0.769170000000     0.471350000000    -0.444146   
O143     O      0.258940000000     0.810030000000     0.471040000000    -0.447891   
O144     O      0.249000000000     0.718750000000     0.467490000000    -0.446741   
O145     O      0.493740000000     0.534420000000     0.766550000000    -0.445285   
O146     O      0.007790000000     0.943690000000     0.758690000000    -0.446167   
O147     O      0.045740000000     0.495020000000     0.763500000000    -0.448512   
O148     O      0.455590000000     0.982440000000     0.762170000000    -0.449163   
O149     O      0.455510000000     0.491930000000     0.710260000000    -0.446547   
O150     O      0.046480000000     0.997610000000     0.710780000000    -0.444467   
O151     O      0.503440000000     0.948290000000     0.706280000000    -0.449152   
O152     O      0.998510000000     0.539440000000     0.714270000000    -0.448807   
O153     O      0.468610000000     0.698990000000     0.754910000000    -0.44259    
O154     O      0.468880000000     0.790760000000     0.747510000000    -0.447181   
O155     O      0.470690000000     0.741400000000     0.705980000000    -0.447952   
O156     O      0.466740000000     0.748250000000     0.796410000000    -0.447061   
O157     O      0.019170000000     0.741050000000     0.798470000000    -0.449148   
O158     O      0.023170000000     0.747620000000     0.708040000000    -0.451738   
O159     O      0.021020000000     0.790570000000     0.756630000000    -0.452699   
O160     O      0.021380000000     0.699030000000     0.750140000000    -0.453568   
O161     O      0.291040000000     0.969510000000     0.745810000000    -0.44678    
O162     O      0.200980000000     0.982110000000     0.751290000000    -0.45288    
O163     O      0.242450000000     0.971450000000     0.702880000000    -0.446605   
O164     O      0.248010000000     0.980500000000     0.793090000000    -0.449639   
O165     O      0.254890000000     0.533190000000     0.787430000000    -0.448918   
O166     O      0.252270000000     0.523700000000     0.697370000000    -0.454033   
O167     O      0.207640000000     0.534450000000     0.742760000000    -0.447787   
O168     O      0.297890000000     0.522200000000     0.740400000000    -0.452408   
O169     O      0.211710000000     0.559370000000     0.998730000000    -0.444628   
O170     O      0.214990000000     0.967530000000     0.493760000000    -0.450012   
O171     O      0.212110000000     0.509650000000     0.541410000000    -0.444857   
O172     O      0.214560000000     0.015600000000     0.950870000000    -0.448858   
O173     O      0.267030000000     0.522740000000     0.952580000000    -0.448158   
O174     O      0.265110000000     0.009100000000     0.542240000000    -0.450232   
O175     O      0.267790000000     0.970130000000     0.990260000000    -0.445225   
O176     O      0.264320000000     0.560680000000     0.504820000000    -0.452392   
O177     O      0.499340000000     0.724280000000     0.546580000000    -0.444123   
O178     O      0.007530000000     0.725180000000     0.956140000000    -0.446028   
O179     O      0.048490000000     0.728800000000     0.505230000000    -0.447803   
O180     O      0.458300000000     0.720110000000     0.997320000000    -0.44717    
O181     O      0.453310000000     0.772690000000     0.505570000000    -0.444681   
O182     O      0.043910000000     0.781440000000     0.997500000000    -0.447726   
O183     O      0.494820000000     0.777010000000     0.956210000000    -0.447784   
O184     O      0.002140000000     0.777730000000     0.546620000000    -0.449479   
O185     O      0.258990000000     0.716430000000     0.519210000000    -0.445381   
O186     O      0.252470000000     0.808090000000     0.523340000000    -0.448379   
O187     O      0.210470000000     0.758900000000     0.523050000000    -0.451559   
O188     O      0.300960000000     0.765680000000     0.519850000000    -0.450908   
O189     O      0.299310000000     0.759810000000     0.967500000000    -0.444389   
O190     O      0.208350000000     0.769170000000     0.971350000000    -0.444366   
O191     O      0.258940000000     0.810030000000     0.971040000000    -0.448115   
O192     O      0.249000000000     0.718750000000     0.967490000000    -0.446958   
O193     O      0.993740000000     0.034420000000     0.266540000000    -0.441635   
O194     O      0.507780000000     0.443700000000     0.258690000000    -0.446573   
O195     O      0.545740000000     0.995020000000     0.263500000000    -0.449019   
O196     O      0.955590000000     0.482440000000     0.262170000000    -0.446216   
O197     O      0.955510000000     0.991930000000     0.210260000000    -0.443755   
O198     O      0.546480000000     0.497620000000     0.210780000000    -0.445274   
O199     O      0.003440000000     0.448290000000     0.206280000000    -0.449201   
O200     O      0.498510000000     0.039440000000     0.214270000000    -0.452291   
O201     O      0.968610000000     0.198990000000     0.254910000000    -0.443954   
O202     O      0.968890000000     0.290750000000     0.247500000000    -0.448489   
O203     O      0.970690000000     0.241410000000     0.205980000000    -0.449159   
O204     O      0.966740000000     0.248250000000     0.296410000000    -0.448245   
O205     O      0.519170000000     0.241050000000     0.298470000000    -0.44604    
O206     O      0.523170000000     0.247620000000     0.208040000000    -0.448515   
O207     O      0.521020000000     0.290570000000     0.256630000000    -0.449388   
O208     O      0.521380000000     0.199030000000     0.250140000000    -0.450306   
O209     O      0.791040000000     0.469510000000     0.245810000000    -0.44685    
O210     O      0.700980000000     0.482110000000     0.251290000000    -0.452424   
O211     O      0.742450000000     0.471460000000     0.202880000000    -0.446888   
O212     O      0.748010000000     0.480500000000     0.293090000000    -0.449118   
O213     O      0.754890000000     0.033190000000     0.287430000000    -0.449113   
O214     O      0.752270000000     0.023700000000     0.197370000000    -0.453505   
O215     O      0.707640000000     0.034440000000     0.242760000000    -0.448172   
O216     O      0.797890000000     0.022200000000     0.240400000000    -0.452018   
O217     O      0.711710000000     0.059370000000     0.498730000000    -0.445327   
O218     O      0.714990000000     0.467530000000     0.993760000000    -0.449317   
O219     O      0.712110000000     0.009650000000     0.041410000000    -0.445143   
O220     O      0.714560000000     0.515600000000     0.450870000000    -0.448817   
O221     O      0.767030000000     0.022740000000     0.452580000000    -0.44797    
O222     O      0.765110000000     0.509100000000     0.042240000000    -0.450831   
O223     O      0.767790000000     0.470130000000     0.490260000000    -0.444669   
O224     O      0.764310000000     0.060680000000     0.004820000000    -0.453021   
O225     O      0.999340000000     0.224280000000     0.046580000000    -0.436716   
O226     O      0.507530000000     0.225180000000     0.456140000000    -0.448174   
O227     O      0.548490000000     0.228800000000     0.005230000000    -0.448641   
O228     O      0.958300000000     0.220110000000     0.497320000000    -0.444904   
O229     O      0.953320000000     0.272690000000     0.005570000000    -0.445188   
O230     O      0.543910000000     0.281440000000     0.497500000000    -0.445829   
O231     O      0.994810000000     0.277010000000     0.456210000000    -0.445784   
O232     O      0.502140000000     0.277730000000     0.046620000000    -0.447538   
O233     O      0.758990000000     0.216430000000     0.019210000000    -0.445914   
O234     O      0.752470000000     0.308090000000     0.023340000000    -0.448959   
O235     O      0.710470000000     0.258890000000     0.023050000000    -0.452081   
O236     O      0.800960000000     0.265680000000     0.019850000000    -0.451461   
O237     O      0.799310000000     0.259810000000     0.467500000000    -0.444161   
O238     O      0.708350000000     0.269170000000     0.471350000000    -0.44413    
O239     O      0.758940000000     0.310030000000     0.471040000000    -0.447881   
O240     O      0.749000000000     0.218750000000     0.467490000000    -0.446735   
O241     O      0.993740000000     0.034420000000     0.766550000000    -0.441424   
O242     O      0.507780000000     0.443700000000     0.758690000000    -0.446534   
O243     O      0.545740000000     0.995020000000     0.763500000000    -0.449069   
O244     O      0.955590000000     0.482440000000     0.762170000000    -0.446174   
O245     O      0.955510000000     0.991930000000     0.710260000000    -0.443711   
O246     O      0.546480000000     0.497620000000     0.710780000000    -0.445132   
O247     O      0.003440000000     0.448290000000     0.706280000000    -0.449158   
O248     O      0.498510000000     0.039440000000     0.714270000000    -0.452203   
O249     O      0.968610000000     0.198990000000     0.754910000000    -0.443959   
O250     O      0.968890000000     0.290750000000     0.747510000000    -0.448528   
O251     O      0.970690000000     0.241410000000     0.705980000000    -0.449173   
O252     O      0.966740000000     0.248250000000     0.796410000000    -0.448233   
O253     O      0.519170000000     0.241050000000     0.798470000000    -0.446037   
O254     O      0.523170000000     0.247620000000     0.708040000000    -0.448517   
O255     O      0.521020000000     0.290570000000     0.756630000000    -0.449399   
O256     O      0.521380000000     0.199030000000     0.750140000000    -0.450307   
O257     O      0.791040000000     0.469510000000     0.745810000000    -0.446849   
O258     O      0.700980000000     0.482110000000     0.751290000000    -0.452423   
O259     O      0.742450000000     0.471460000000     0.702880000000    -0.446886   
O260     O      0.748010000000     0.480500000000     0.793090000000    -0.449118   
O261     O      0.754890000000     0.033190000000     0.787430000000    -0.449108   
O262     O      0.752270000000     0.023700000000     0.697370000000    -0.453515   
O263     O      0.707640000000     0.034440000000     0.742760000000    -0.448167   
O264     O      0.797890000000     0.022200000000     0.740400000000    -0.452029   
O265     O      0.711710000000     0.059370000000     0.998730000000    -0.444754   
O266     O      0.714990000000     0.467530000000     0.493760000000    -0.449462   
O267     O      0.712110000000     0.009650000000     0.541410000000    -0.444688   
O268     O      0.714560000000     0.515600000000     0.950870000000    -0.4489     
O269     O      0.767030000000     0.022740000000     0.952580000000    -0.448088   
O270     O      0.765110000000     0.509100000000     0.542240000000    -0.450294   
O271     O      0.767790000000     0.470130000000     0.990260000000    -0.444696   
O272     O      0.764310000000     0.060680000000     0.504820000000    -0.452627   
O273     O      0.999340000000     0.224280000000     0.546580000000    -0.436822   
O274     O      0.507530000000     0.225180000000     0.956140000000    -0.447653   
O275     O      0.548490000000     0.228800000000     0.505230000000    -0.448847   
O276     O      0.958300000000     0.220110000000     0.997320000000    -0.443808   
O277     O      0.953320000000     0.272690000000     0.505570000000    -0.445438   
O278     O      0.543910000000     0.281440000000     0.997500000000    -0.44471    
O279     O      0.994810000000     0.277010000000     0.956210000000    -0.445269   
O280     O      0.502140000000     0.277730000000     0.546620000000    -0.447664   
O281     O      0.758990000000     0.216430000000     0.519210000000    -0.445374   
O282     O      0.752470000000     0.308090000000     0.523340000000    -0.448376   
O283     O      0.710470000000     0.258890000000     0.523050000000    -0.45151    
O284     O      0.800960000000     0.265680000000     0.519850000000    -0.450897   
O285     O      0.799310000000     0.259810000000     0.967500000000    -0.444367   
O286     O      0.708350000000     0.269170000000     0.971350000000    -0.444344   
O287     O      0.758940000000     0.310030000000     0.971040000000    -0.448099   
O288     O      0.749000000000     0.218750000000     0.967490000000    -0.446946   
O289     O      0.993740000000     0.534420000000     0.266540000000    -0.442172   
O290     O      0.507780000000     0.943690000000     0.258690000000    -0.446492   
O291     O      0.545740000000     0.495020000000     0.263500000000    -0.449089   
O292     O      0.955590000000     0.982440000000     0.262170000000    -0.446228   
O293     O      0.955510000000     0.491930000000     0.210260000000    -0.443638   
O294     O      0.546480000000     0.997610000000     0.210780000000    -0.445296   
O295     O      0.003440000000     0.948290000000     0.206280000000    -0.449252   
O296     O      0.498510000000     0.539440000000     0.214270000000    -0.452781   
O297     O      0.968610000000     0.698990000000     0.254910000000    -0.443911   
O298     O      0.968890000000     0.790760000000     0.247500000000    -0.44844    
O299     O      0.970690000000     0.741400000000     0.205980000000    -0.449113   
O300     O      0.966740000000     0.748250000000     0.296410000000    -0.448222   
O301     O      0.519170000000     0.741050000000     0.298470000000    -0.446042   
O302     O      0.523170000000     0.747620000000     0.208040000000    -0.448513   
O303     O      0.521020000000     0.790570000000     0.256630000000    -0.449425   
O304     O      0.521380000000     0.699030000000     0.250140000000    -0.450304   
O305     O      0.791040000000     0.969510000000     0.245810000000    -0.446656   
O306     O      0.700980000000     0.982110000000     0.251290000000    -0.453016   
O307     O      0.742450000000     0.971450000000     0.202880000000    -0.446616   
O308     O      0.748010000000     0.980500000000     0.293090000000    -0.449641   
O309     O      0.754890000000     0.533190000000     0.287430000000    -0.448915   
O310     O      0.752270000000     0.523700000000     0.197370000000    -0.45404    
O311     O      0.707640000000     0.534450000000     0.242760000000    -0.447805   
O312     O      0.797890000000     0.522200000000     0.240400000000    -0.452388   
O313     O      0.711710000000     0.559370000000     0.498730000000    -0.445229   
O314     O      0.714990000000     0.967530000000     0.993760000000    -0.4498     
O315     O      0.712110000000     0.509650000000     0.041410000000    -0.445286   
O316     O      0.714560000000     0.015600000000     0.450870000000    -0.448729   
O317     O      0.767030000000     0.522740000000     0.452580000000    -0.447993   
O318     O      0.765110000000     0.009100000000     0.042240000000    -0.450708   
O319     O      0.767790000000     0.970130000000     0.490260000000    -0.445174   
O320     O      0.764310000000     0.560680000000     0.004820000000    -0.452932   
O321     O      0.999340000000     0.724280000000     0.046580000000    -0.436711   
O322     O      0.507530000000     0.725180000000     0.456140000000    -0.448183   
O323     O      0.548490000000     0.728800000000     0.005230000000    -0.448643   
O324     O      0.958300000000     0.720110000000     0.497320000000    -0.444919   
O325     O      0.953320000000     0.772690000000     0.005570000000    -0.445189   
O326     O      0.543910000000     0.781440000000     0.497500000000    -0.445839   
O327     O      0.994810000000     0.777010000000     0.456210000000    -0.445789   
O328     O      0.502140000000     0.777730000000     0.046620000000    -0.447544   
O329     O      0.758990000000     0.716430000000     0.019210000000    -0.44594    
O330     O      0.752470000000     0.808090000000     0.023340000000    -0.448967   
O331     O      0.710470000000     0.758900000000     0.023050000000    -0.45214    
O332     O      0.800960000000     0.765680000000     0.019850000000    -0.45148    
O333     O      0.799310000000     0.759810000000     0.467500000000    -0.444163   
O334     O      0.708350000000     0.769170000000     0.471350000000    -0.444145   
O335     O      0.758940000000     0.810030000000     0.471040000000    -0.447881   
O336     O      0.749000000000     0.718750000000     0.467490000000    -0.44674    
O337     O      0.993740000000     0.534420000000     0.766550000000    -0.441949   
O338     O      0.507780000000     0.943690000000     0.758690000000    -0.446455   
O339     O      0.545740000000     0.495020000000     0.763500000000    -0.449138   
O340     O      0.955590000000     0.982440000000     0.762170000000    -0.446185   
O341     O      0.955510000000     0.491930000000     0.710260000000    -0.443596   
O342     O      0.546480000000     0.997610000000     0.710780000000    -0.445154   
O343     O      0.003440000000     0.948290000000     0.706280000000    -0.44921    
O344     O      0.498510000000     0.539440000000     0.714270000000    -0.452681   
O345     O      0.968610000000     0.698990000000     0.754910000000    -0.443916   
O346     O      0.968890000000     0.790760000000     0.747510000000    -0.448479   
O347     O      0.970690000000     0.741400000000     0.705980000000    -0.449126   
O348     O      0.966740000000     0.748250000000     0.796410000000    -0.448209   
O349     O      0.519170000000     0.741050000000     0.798470000000    -0.446039   
O350     O      0.523170000000     0.747620000000     0.708040000000    -0.448516   
O351     O      0.521020000000     0.790570000000     0.756630000000    -0.449435   
O352     O      0.521380000000     0.699030000000     0.750140000000    -0.450306   
O353     O      0.791040000000     0.969510000000     0.745810000000    -0.446659   
O354     O      0.700980000000     0.982110000000     0.751290000000    -0.453003   
O355     O      0.742450000000     0.971450000000     0.702880000000    -0.446617   
O356     O      0.748010000000     0.980500000000     0.793090000000    -0.449628   
O357     O      0.754890000000     0.533190000000     0.787430000000    -0.448914   
O358     O      0.752270000000     0.523700000000     0.697370000000    -0.454037   
O359     O      0.707640000000     0.534450000000     0.742760000000    -0.447804   
O360     O      0.797890000000     0.522200000000     0.740400000000    -0.452387   
O361     O      0.711710000000     0.559370000000     0.998730000000    -0.444644   
O362     O      0.714990000000     0.967530000000     0.493760000000    -0.449964   
O363     O      0.712110000000     0.509650000000     0.541410000000    -0.444812   
O364     O      0.714560000000     0.015600000000     0.950870000000    -0.448812   
O365     O      0.767030000000     0.522740000000     0.952580000000    -0.448115   
O366     O      0.765110000000     0.009100000000     0.542240000000    -0.45019    
O367     O      0.767790000000     0.970130000000     0.990260000000    -0.44518    
O368     O      0.764310000000     0.560680000000     0.504820000000    -0.452522   
O369     O      0.999340000000     0.724280000000     0.546580000000    -0.436819   
O370     O      0.507530000000     0.725180000000     0.956140000000    -0.44765    
O371     O      0.548490000000     0.728800000000     0.505230000000    -0.448854   
O372     O      0.958300000000     0.720110000000     0.997320000000    -0.443797   
O373     O      0.953320000000     0.772690000000     0.505570000000    -0.445445   
O374     O      0.543910000000     0.781440000000     0.997500000000    -0.444693   
O375     O      0.994810000000     0.777010000000     0.956210000000    -0.445261   
O376     O      0.502140000000     0.777730000000     0.546620000000    -0.447673   
O377     O      0.758990000000     0.716430000000     0.519210000000    -0.445387   
O378     O      0.752470000000     0.808090000000     0.523340000000    -0.44837    
O379     O      0.710470000000     0.758900000000     0.523050000000    -0.451556   
O380     O      0.800960000000     0.765680000000     0.519850000000    -0.450902   
O381     O      0.799310000000     0.759810000000     0.967500000000    -0.444374   
O382     O      0.708350000000     0.769170000000     0.971350000000    -0.444364   
O383     O      0.758940000000     0.810030000000     0.971040000000    -0.448104   
O384     O      0.749000000000     0.718750000000     0.967490000000    -0.446955   
S1       S      0.412620000000     0.269710000000     0.063410000000    -0.00667409 
S2       S      0.118790000000     0.204250000000     0.491050000000    -0.00377339 
S3       S      0.284630000000     0.425140000000     0.441500000000    -0.00480263 
S4       S      0.305720000000     0.167100000000     0.026180000000    -0.00795274 
S5       S      0.253400000000     0.458700000000     0.366180000000    -0.000148998
S6       S      0.196650000000     0.457970000000     0.085870000000    -0.0126625  
S7       S      0.028480000000     0.190720000000     0.343240000000    -0.00663737 
S8       S      0.435940000000     0.233360000000     0.086890000000    -0.00691309 
S9       S      0.089990000000     0.051280000000     0.200120000000    -0.0102877  
S10      S      0.410270000000     0.042180000000     0.203450000000    -0.00455914 
S11      S      0.063500000000     0.401240000000     0.262490000000    -0.0153935  
S12      S      0.458310000000     0.149280000000     0.302730000000    -0.00716058 
S13      S      0.412620000000     0.269710000000     0.563410000000    -0.00663208 
S14      S      0.118790000000     0.204250000000     0.991050000000    -0.00276497 
S15      S      0.284630000000     0.425140000000     0.941500000000    -0.00468831 
S16      S      0.305720000000     0.167100000000     0.526180000000    -0.00781319 
S17      S      0.253400000000     0.458700000000     0.866180000000    -0.0001353  
S18      S      0.196650000000     0.457970000000     0.585870000000    -0.0124773  
S19      S      0.028480000000     0.190720000000     0.843240000000    -0.00660022 
S20      S      0.435940000000     0.233360000000     0.586890000000    -0.00685243 
S21      S      0.089990000000     0.051280000000     0.700120000000    -0.0102541  
S22      S      0.410270000000     0.042180000000     0.703450000000    -0.0045307  
S23      S      0.063500000000     0.401240000000     0.762490000000    -0.0153635  
S24      S      0.458310000000     0.149280000000     0.802730000000    -0.00712972 
S25      S      0.412620000000     0.769710000000     0.063410000000    -0.00669644 
S26      S      0.118790000000     0.704250000000     0.491050000000    -0.00381114 
S27      S      0.284630000000     0.925140000000     0.441500000000    -0.0050329  
S28      S      0.305720000000     0.667100000000     0.026180000000    -0.00799003 
S29      S      0.253400000000     0.958700000000     0.366180000000    -0.000221249
S30      S      0.196650000000     0.957960000000     0.085870000000    -0.0127986  
S31      S      0.028480000000     0.690720000000     0.343240000000    -0.00667954 
S32      S      0.435940000000     0.733360000000     0.086890000000    -0.00693214 
S33      S      0.089990000000     0.551280000000     0.200120000000    -0.0105796  
S34      S      0.410270000000     0.542180000000     0.203450000000    -0.00495472 
S35      S      0.063500000000     0.901240000000     0.262490000000    -0.0154321  
S36      S      0.458310000000     0.649280000000     0.302730000000    -0.00721262 
S37      S      0.412620000000     0.769710000000     0.563410000000    -0.00665305 
S38      S      0.118790000000     0.704250000000     0.991050000000    -0.00277946 
S39      S      0.284630000000     0.925140000000     0.941500000000    -0.0049109  
S40      S      0.305720000000     0.667100000000     0.526180000000    -0.00784635 
S41      S      0.253400000000     0.958700000000     0.866180000000    -0.000205512
S42      S      0.196650000000     0.957960000000     0.585870000000    -0.0126067  
S43      S      0.028480000000     0.690720000000     0.843240000000    -0.00664108 
S44      S      0.435940000000     0.733360000000     0.586890000000    -0.00686975 
S45      S      0.089990000000     0.551280000000     0.700120000000    -0.0105388  
S46      S      0.410270000000     0.542180000000     0.703450000000    -0.00491698 
S47      S      0.063500000000     0.901240000000     0.762490000000    -0.0154005  
S48      S      0.458310000000     0.649280000000     0.802730000000    -0.00718028 
S49      S      0.912620000000     0.269710000000     0.063410000000    -0.00611199 
S50      S      0.618790000000     0.204250000000     0.491050000000    -0.00349645 
S51      S      0.784630000000     0.425140000000     0.441500000000    -0.00458774 
S52      S      0.805720000000     0.167100000000     0.026180000000    -0.00778759 
S53      S      0.753400000000     0.458700000000     0.366180000000    -6.6595e-05 
S54      S      0.696660000000     0.457970000000     0.085870000000    -0.0124671  
S55      S      0.528480000000     0.190720000000     0.343240000000    -0.00605    
S56      S      0.935940000000     0.233360000000     0.086890000000    -0.00613092 
S57      S      0.589990000000     0.051280000000     0.200120000000    -0.00947441 
S58      S      0.910270000000     0.042180000000     0.203450000000    -0.00393528 
S59      S      0.563500000000     0.401240000000     0.262490000000    -0.0150403  
S60      S      0.958310000000     0.149280000000     0.302730000000    -0.00683995 
S61      S      0.912620000000     0.269710000000     0.563410000000    -0.00606937 
S62      S      0.618790000000     0.204250000000     0.991050000000    -0.00248825 
S63      S      0.784630000000     0.425140000000     0.941500000000    -0.00447518 
S64      S      0.805720000000     0.167100000000     0.526180000000    -0.0076485  
S65      S      0.753400000000     0.458700000000     0.866180000000    -5.32114e-05
S66      S      0.696660000000     0.457970000000     0.585870000000    -0.0122813  
S67      S      0.528480000000     0.190720000000     0.843240000000    -0.00601261 
S68      S      0.935940000000     0.233360000000     0.586890000000    -0.0060697  
S69      S      0.589990000000     0.051280000000     0.700120000000    -0.00944024 
S70      S      0.910270000000     0.042180000000     0.703450000000    -0.00390676 
S71      S      0.563500000000     0.401240000000     0.762490000000    -0.0150105  
S72      S      0.958310000000     0.149280000000     0.802730000000    -0.00681098 
S73      S      0.912620000000     0.769710000000     0.063410000000    -0.00613423 
S74      S      0.618790000000     0.704250000000     0.491050000000    -0.00353307 
S75      S      0.784630000000     0.925140000000     0.441500000000    -0.00481687 
S76      S      0.805720000000     0.667100000000     0.026180000000    -0.00782369 
S77      S      0.753400000000     0.958700000000     0.366180000000    -0.000138647
S78      S      0.696660000000     0.957960000000     0.085870000000    -0.0126036  
S79      S      0.528480000000     0.690720000000     0.343240000000    -0.00608964 
S80      S      0.935940000000     0.733360000000     0.086890000000    -0.00614785 
S81      S      0.589990000000     0.551280000000     0.200120000000    -0.00976097 
S82      S      0.910270000000     0.542180000000     0.203450000000    -0.00432234 
S83      S      0.563500000000     0.901240000000     0.262490000000    -0.0150793  
S84      S      0.958310000000     0.649280000000     0.302730000000    -0.00689049 
S85      S      0.912620000000     0.769710000000     0.563410000000    -0.00609023 
S86      S      0.618790000000     0.704250000000     0.991050000000    -0.00250157 
S87      S      0.784630000000     0.925140000000     0.941500000000    -0.00469663 
S88      S      0.805720000000     0.667100000000     0.526180000000    -0.00768049 
S89      S      0.753400000000     0.958700000000     0.866180000000    -0.000123227
S90      S      0.696660000000     0.957960000000     0.585870000000    -0.012411   
S91      S      0.528480000000     0.690720000000     0.843240000000    -0.00605093 
S92      S      0.935940000000     0.733360000000     0.586890000000    -0.00608489 
S93      S      0.589990000000     0.551280000000     0.700120000000    -0.00971949 
S94      S      0.910270000000     0.542180000000     0.703450000000    -0.00428453 
S95      S      0.563500000000     0.901240000000     0.762490000000    -0.0150478  
S96      S      0.958310000000     0.649280000000     0.802730000000    -0.00686005 


