data_structure

_audit_creation_method RASPA-1.0
_audit_creation_date 2023-6-5
_audit_author_name 'Poobodin Mano'

_cell_length_a    33.7024
_cell_length_b    33.087
_cell_length_c    40.275
_cell_angle_alpha 89.9805
_cell_angle_beta  90.0195
_cell_angle_gamma 119.981
_cell_volume      38901.6

_symmetry_cell_setting          triclinic
_symmetry_space_group_name_Hall 'P 1'
_symmetry_space_group_name_H-M  'P 1'
_symmetry_Int_Tables_number     1

_symmetry_equiv_pos_as_xyz 'x,y,z'

loop_
_atom_site_label
_atom_site_type_symbol
_atom_site_fract_x
_atom_site_fract_y
_atom_site_fract_z
_atom_site_charge
C1       C      0.837200000000     0.701800000000     0.277750000000     0.437713   
C2       C      0.830550000000     0.694620000000     0.404050000000     0.439142   
C3       C      0.746770000000     0.663790000000     0.340820000000     0.429719   
C4       C      0.920000000000     0.730430000000     0.343090000000     0.427421   
C5       C      0.170190000000     0.814060000000     0.458450000000     0.43452    
C6       C      0.192520000000     0.846940000000     0.334660000000     0.431162   
C7       C      0.262910000000     0.865820000000     0.409020000000     0.431525   
C8       C      0.091580000000     0.791890000000     0.388100000000     0.435537   
C9       C      0.541650000000     0.987540000000     0.421690000000     0.433015   
C10      C      0.498350000000     0.990080000000     0.043040000000     0.426181   
C11      C      0.434970000000     0.944040000000     0.466710000000     0.425222   
C12      C      0.604000000000     0.033720000000     0.999290000000     0.427133   
C13      C      0.158930000000     0.376330000000     0.197490000000     0.432927   
C14      C      0.227870000000     0.382320000000     0.083370000000     0.429739   
C15      C      0.272420000000     0.417040000000     0.167190000000     0.436696   
C16      C      0.114720000000     0.341980000000     0.113090000000     0.435435   
C17      C      0.854060000000     0.183660000000     0.994620000000     0.435111   
C18      C      0.865140000000     0.195990000000     0.119900000000     0.429124   
C19      C      0.779020000000     0.139700000000     0.049990000000     0.436203   
C20      C      0.950550000000     0.247030000000     0.055440000000     0.434081   
C21      C      0.550690000000     0.580460000000     0.192320000000     0.433438   
C22      C      0.494360000000     0.524090000000     0.309130000000     0.440052   
C23      C      0.439180000000     0.501190000000     0.229020000000     0.432639   
C24      C      0.596310000000     0.598550000000     0.279460000000     0.435334   
C25      C      0.177210000000     0.375390000000     0.328300000000     0.426309   
C26      C      0.212050000000     0.375560000000     0.451830000000     0.431937   
C27      C      0.239110000000     0.333180000000     0.378620000000     0.434967   
C28      C      0.150270000000     0.417070000000     0.404480000000     0.429223   
C29      C      0.351630000000     0.164500000000     0.352900000000     0.427766   
C30      C      0.345690000000     0.223560000000     0.237000000000     0.431222   
C31      C      0.315260000000     0.241540000000     0.318850000000     0.428942   
C32      C      0.380900000000     0.144500000000     0.270760000000     0.429299   
C33      C      0.062250000000     0.572670000000     0.471180000000     0.426745   
C34      C      0.062390000000     0.501420000000     0.083880000000     0.427328   
C35      C      0.089240000000     0.486630000000     0.496320000000     0.433971   
C36      C      0.036390000000     0.586070000000     0.058260000000     0.434332   
C37      C      0.675250000000     0.880040000000     0.054830000000     0.423444   
C38      C      0.665880000000     0.827630000000     0.175730000000     0.428665   
C39      C      0.719400000000     0.816040000000     0.100890000000     0.429907   
C40      C      0.623450000000     0.890950000000     0.130800000000     0.428808   
C41      C      0.885870000000     0.702980000000     0.152440000000     0.43228    
C42      C      0.882130000000     0.697830000000     0.026240000000     0.433207   
C43      C      0.830490000000     0.734990000000     0.088780000000     0.426854   
C44      C      0.937700000000     0.667660000000     0.088300000000     0.428856   
C45      C      0.518190000000     0.989160000000     0.289840000000     0.426055   
C46      C      0.467030000000     0.994600000000     0.171300000000     0.434252   
C47      C      0.452250000000     0.033740000000     0.253310000000     0.434769   
C48      C      0.534860000000     0.951360000000     0.208090000000     0.434346   
C49      C      0.350810000000     0.160520000000     0.987390000000     0.430698   
C50      C      0.351370000000     0.212810000000     0.106620000000     0.433367   
C51      C      0.385480000000     0.271210000000     0.027780000000     0.43409    
C52      C      0.317850000000     0.102810000000     0.067760000000     0.432919   
C53      C      0.546230000000     0.573100000000     0.059890000000     0.434309   
C54      C      0.493720000000     0.510390000000     0.443200000000     0.43217    
C55      C      0.476560000000     0.457640000000     0.024390000000     0.429902   
C56      C      0.561140000000     0.622790000000     0.477090000000     0.432934   
C57      C      0.238910000000     0.884260000000     0.211520000000     0.436756   
C58      C      0.190940000000     0.816800000000     0.095220000000     0.426411   
C59      C      0.176660000000     0.767440000000     0.179970000000     0.426866   
C60      C      0.250130000000     0.928740000000     0.126450000000     0.427757   
C61      C      0.063310000000     0.558320000000     0.339820000000     0.427899   
C62      C      0.055110000000     0.502360000000     0.220120000000     0.423908   
C63      C      0.012650000000     0.445640000000     0.300270000000     0.424226   
C64      C      0.104830000000     0.614520000000     0.259430000000     0.431389   
C65      C      0.877090000000     0.208970000000     0.252740000000     0.433469   
C66      C      0.816100000000     0.159060000000     0.370590000000     0.429146   
C67      C      0.903710000000     0.267790000000     0.332130000000     0.433432   
C68      C      0.792110000000     0.102910000000     0.291300000000     0.429576   
C69      C      0.679810000000     0.895610000000     0.420790000000     0.42849    
C70      C      0.663240000000     0.816490000000     0.308430000000     0.42496    
C71      C      0.639050000000     0.781060000000     0.397080000000     0.42837    
C72      C      0.704990000000     0.933740000000     0.332480000000     0.430496   
C73      C      0.713290000000     0.036120000000     0.283570000000    -0.0114091  
C74      C      0.779990000000     0.027280000000     0.271570000000    -0.0362874  
C75      C      0.696740000000     0.998330000000     0.310750000000    -0.0107743  
C76      C      0.770720000000     0.993750000000     0.300290000000     0.0934128  
C77      C      0.936640000000     0.378890000000     0.313200000000    -0.0127414  
C78      C      0.007940000000     0.370870000000     0.316540000000    -0.0438331  
C79      C      0.917910000000     0.346960000000     0.343280000000    -0.00767352 
C80      C      0.984320000000     0.335010000000     0.344860000000     0.094173   
C81      C      0.108540000000     0.700020000000     0.205260000000    -0.0127779  
C82      C      0.183120000000     0.700510000000     0.201560000000    -0.0416014  
C83      C      0.104690000000     0.686020000000     0.241810000000    -0.0100522  
C84      C      0.178150000000     0.685520000000     0.238270000000     0.0916182  
C85      C      0.652060000000     0.729170000000     0.433760000000    -0.0116621  
C86      C      0.583920000000     0.738560000000     0.441040000000    -0.0400542  
C87      C      0.623730000000     0.677280000000     0.441610000000    -0.00917024 
C88      C      0.554440000000     0.687790000000     0.452200000000     0.0932265  
C89      C      0.314510000000     0.993600000000     0.096340000000    -0.0118841  
C90      C      0.234660000000     0.976970000000     0.088250000000    -0.0397441  
C91      C      0.331770000000     0.046010000000     0.096840000000    -0.010924   
C92      C      0.249890000000     0.028900000000     0.087990000000     0.0927724  
C93      C      0.476080000000     0.384360000000     0.037620000000    -0.0111469  
C94      C      0.403120000000     0.386770000000     0.039540000000    -0.0407157  
C95      C      0.454700000000     0.344700000000     0.012470000000    -0.00954241 
C96      C      0.380700000000     0.344560000000     0.015720000000     0.091542   
C97      C      0.700890000000     0.806600000000     0.258740000000    -0.0140657  
C98      C      0.616650000000     0.771570000000     0.259620000000    -0.0390413  
C99      C      0.704950000000     0.836010000000     0.228290000000    -0.00764783 
C100     C      0.617590000000     0.795520000000     0.226490000000     0.0904919  
C101     C      0.634990000000     0.870800000000     0.001920000000    -0.0113426  
C102     C      0.717220000000     0.936120000000     0.009520000000    -0.0406511  
C103     C      0.638960000000     0.899080000000     0.970640000000    -0.0108309  
C104     C      0.724550000000     0.929830000000     0.972340000000     0.0908364  
C105     C      0.821760000000     0.804180000000     0.082680000000    -0.0124496  
C106     C      0.752560000000     0.723720000000     0.093410000000    -0.0388796  
C107     C      0.795120000000     0.822700000000     0.101630000000    -0.00778236 
C108     C      0.724350000000     0.746940000000     0.083240000000     0.0903029  
C109     C      0.619420000000     0.958510000000     0.153430000000    -0.0120855  
C110     C      0.547880000000     0.881940000000     0.145280000000    -0.0409334  
C111     C      0.607760000000     0.957710000000     0.190180000000    -0.00939371 
C112     C      0.535610000000     0.881370000000     0.182190000000     0.091679   
C113     C      0.021130000000     0.577480000000     0.421390000000    -0.0111267  
C114     C      0.105660000000     0.619730000000     0.422370000000    -0.0387319  
C115     C      0.019920000000     0.551020000000     0.389930000000    -0.0111794  
C116     C      0.108040000000     0.593420000000     0.391600000000     0.0912376  
C117     C      0.093480000000     0.489360000000     0.172270000000    -0.0143871  
C118     C      0.013410000000     0.478870000000     0.167220000000    -0.0400592  
C119     C      0.101540000000     0.508960000000     0.136850000000    -0.00733529 
C120     C      0.014150000000     0.460180000000     0.132290000000     0.0913079  
C121     C      0.945130000000     0.598160000000     0.082530000000    -0.011834   
C122     C      0.014690000000     0.679940000000     0.075870000000    -0.0414167  
C123     C      0.977330000000     0.582420000000     0.095560000000    -0.00640813 
C124     C      0.045640000000     0.659720000000     0.085690000000     0.0932393  
C125     C      0.311630000000     0.113740000000     0.400780000000    -0.0126302  
C126     C      0.396840000000     0.173810000000     0.402970000000    -0.0390538  
C127     C      0.307760000000     0.129320000000     0.435790000000    -0.00670059 
C128     C      0.393570000000     0.156410000000     0.438940000000     0.092144   
C129     C      0.301920000000     0.222800000000     0.187280000000    -0.0098752  
C130     C      0.385710000000     0.274910000000     0.189120000000    -0.0382035  
C131     C      0.305240000000     0.198670000000     0.156080000000    -0.0103524  
C132     C      0.393170000000     0.252230000000     0.158290000000     0.0921016  
C133     C      0.369380000000     0.068990000000     0.248350000000    -0.0133079  
C134     C      0.448530000000     0.136320000000     0.259220000000    -0.042585   
C135     C      0.381900000000     0.036180000000     0.267190000000    -0.0112793  
C136     C      0.457760000000     0.104540000000     0.281330000000     0.0951403  
C137     C      0.154300000000     0.487780000000     0.427950000000    -0.0124296  
C138     C      0.079490000000     0.413960000000     0.425560000000    -0.0400562  
C139     C      0.152650000000     0.486730000000     0.465900000000    -0.00960322 
C140     C      0.075480000000     0.414310000000     0.463730000000     0.0916348  
C141     C      0.322810000000     0.317950000000     0.334290000000    -0.0140765  
C142     C      0.247730000000     0.242430000000     0.341130000000    -0.0419465  
C143     C      0.312740000000     0.335720000000     0.366860000000    -0.0100956  
C144     C      0.243280000000     0.258680000000     0.375580000000     0.0938208  
C145     C      0.450280000000     0.511260000000     0.395110000000    -0.0109208  
C146     C      0.504620000000     0.478920000000     0.390580000000    -0.0414134  
C147     C      0.445650000000     0.502630000000     0.357680000000    -0.00929779 
C148     C      0.525120000000     0.508460000000     0.359190000000     0.0924589  
C149     C      0.558740000000     0.629500000000     0.143530000000    -0.0132646  
C150     C      0.587060000000     0.571180000000     0.142660000000    -0.037276   
C151     C      0.536800000000     0.610330000000     0.109630000000    -0.00185564 
C152     C      0.599100000000     0.587760000000     0.106560000000     0.0935039  
C153     C      0.778070000000     0.166390000000     0.420710000000    -0.012189   
C154     C      0.800080000000     0.105990000000     0.418570000000    -0.0395159  
C155     C      0.810450000000     0.192180000000     0.449460000000    -0.00736636 
C156     C      0.828940000000     0.124120000000     0.450310000000     0.099361   
C157     C      0.848500000000     0.223710000000     0.172390000000    -0.0129627  
C158     C      0.881970000000     0.170210000000     0.173050000000    -0.0409552  
C159     C      0.880050000000     0.251000000000     0.201320000000    -0.00804398 
C160     C      0.914740000000     0.200170000000     0.200850000000     0.0922453  
C161     C      0.193410000000     0.418360000000     0.275310000000    -0.0122562  
C162     C      0.141370000000     0.330090000000     0.277420000000    -0.0428211  
C163     C      0.162930000000     0.420220000000     0.247720000000    -0.0111638  
C164     C      0.113550000000     0.334440000000     0.248840000000     0.0941418  
C165     C      0.268250000000     0.425720000000     0.032550000000    -0.0103919  
C166     C      0.234180000000     0.339910000000     0.034950000000    -0.0407818  
C167     C      0.239310000000     0.421840000000     0.002310000000    -0.00973823 
C168     C      0.202950000000     0.332950000000     0.005070000000     0.0927727  
C169     C      0.027840000000     0.256500000000     0.058010000000    -0.0104739  
C170     C      0.019370000000     0.326420000000     0.055540000000    -0.0389713  
C171     C      0.049790000000     0.269930000000     0.092060000000    -0.00953974 
C172     C      0.047510000000     0.345630000000     0.087760000000     0.0906062  
C173     C      0.373820000000     0.424870000000     0.210740000000    -0.0113058  
C174     C      0.361370000000     0.489940000000     0.227640000000    -0.0396618  
C175     C      0.342700000000     0.415440000000     0.180390000000    -0.0110101  
C176     C      0.335440000000     0.486220000000     0.195910000000     0.094589   
C177     C      0.553740000000     0.033340000000     0.340730000000    -0.0138084  
C178     C      0.507350000000     0.944470000000     0.341010000000    -0.0403901  
C179     C      0.580430000000     0.031010000000     0.370790000000    -0.00768597 
C180     C      0.538500000000     0.944580000000     0.368810000000     0.0925846  
C181     C      0.468360000000     0.949300000000     0.096450000000    -0.0127003  
C182     C      0.504750000000     0.037480000000     0.092180000000    -0.0428495  
C183     C      0.433070000000     0.949000000000     0.120740000000    -0.00979792 
C184     C      0.469490000000     0.034960000000     0.117400000000     0.0946978  
C185     C      0.658030000000     0.096890000000     0.034800000000    -0.013805   
C186     C      0.679200000000     0.040040000000     0.009720000000    -0.0416884  
C187     C      0.707810000000     0.135220000000     0.032100000000    -0.00752719 
C188     C      0.729140000000     0.080350000000     0.006570000000     0.100818   
C189     C      0.225710000000     0.835780000000     0.283510000000    -0.0114772  
C190     C      0.192170000000     0.889760000000     0.284330000000    -0.0415406  
C191     C      0.266900000000     0.873270000000     0.264250000000    -0.0101748  
C192     C      0.232740000000     0.924210000000     0.262790000000     0.0945651  
C193     C      0.147730000000     0.817440000000     0.046810000000    -0.0108788  
C194     C      0.222180000000     0.815480000000     0.041060000000    -0.0411821  
C195     C      0.134410000000     0.797110000000     0.012080000000    -0.0085284  
C196     C      0.209760000000     0.799770000000     0.004670000000     0.0931213  
C197     C      0.364310000000     0.870410000000     0.452150000000    -0.0129948  
C198     C      0.364720000000     0.947130000000     0.458300000000    -0.0374497  
C199     C      0.331170000000     0.859290000000     0.422820000000    -0.00626098 
C200     C      0.312920000000     0.916380000000     0.452720000000     0.0949364  
C201     C      0.897950000000     0.738590000000     0.472530000000    -0.012971   
C202     C      0.853310000000     0.651070000000     0.475010000000    -0.0405471  
C203     C      0.856820000000     0.738490000000     0.456110000000    -0.0094843  
C204     C      0.812550000000     0.651490000000     0.458680000000     0.0945888  
C205     C      0.861270000000     0.660310000000     0.205640000000    -0.0103959  
C206     C      0.905250000000     0.747640000000     0.204910000000    -0.0406477  
C207     C      0.822290000000     0.661030000000     0.224230000000    -0.00838347 
C208     C      0.866190000000     0.748420000000     0.224270000000     0.0920515  
C209     C      0.669570000000     0.594380000000     0.346270000000     0.0016695  
C210     C      0.679150000000     0.674340000000     0.346040000000    -0.0382636  
C211     C      0.622660000000     0.577900000000     0.329730000000    -0.0446882  
C212     C      0.645230000000     0.663250000000     0.317440000000     0.0948582  
C213     C      0.987870000000     0.718970000000     0.342900000000    -0.0123379  
C214     C      0.996600000000     0.797160000000     0.355580000000    -0.0416228  
C215     C      0.016200000000     0.722950000000     0.374130000000    -0.0122007  
C216     C      0.018930000000     0.797460000000     0.388650000000     0.0937067  
C217     C      0.837200000000     0.701800000000     0.777750000000     0.437714   
C218     C      0.830550000000     0.694620000000     0.904050000000     0.439146   
C219     C      0.746770000000     0.663790000000     0.840820000000     0.429938   
C220     C      0.920000000000     0.730420000000     0.843090000000     0.427411   
C221     C      0.170190000000     0.814060000000     0.958450000000     0.434497   
C222     C      0.192520000000     0.846940000000     0.834660000000     0.431317   
C223     C      0.262910000000     0.865820000000     0.909020000000     0.431651   
C224     C      0.091580000000     0.791890000000     0.888100000000     0.435426   
C225     C      0.541640000000     0.987530000000     0.921690000000     0.433117   
C226     C      0.498350000000     0.990080000000     0.543040000000     0.426184   
C227     C      0.434970000000     0.944040000000     0.966710000000     0.425018   
C228     C      0.604000000000     0.033720000000     0.499290000000     0.427157   
C229     C      0.158930000000     0.376330000000     0.697490000000     0.43269    
C230     C      0.227870000000     0.382320000000     0.583370000000     0.429938   
C231     C      0.272420000000     0.417040000000     0.667190000000     0.436718   
C232     C      0.114720000000     0.341980000000     0.613090000000     0.435416   
C233     C      0.854060000000     0.183660000000     0.494610000000     0.435107   
C234     C      0.865140000000     0.195990000000     0.619900000000     0.429246   
C235     C      0.779010000000     0.139700000000     0.549990000000     0.43614    
C236     C      0.950560000000     0.247030000000     0.555440000000     0.433762   
C237     C      0.550690000000     0.580450000000     0.692320000000     0.433154   
C238     C      0.494360000000     0.524090000000     0.809140000000     0.439983   
C239     C      0.439180000000     0.501190000000     0.729020000000     0.433059   
C240     C      0.596310000000     0.598550000000     0.779460000000     0.435244   
C241     C      0.177210000000     0.375390000000     0.828300000000     0.42631    
C242     C      0.212050000000     0.375560000000     0.951830000000     0.432054   
C243     C      0.239110000000     0.333180000000     0.878630000000     0.435059   
C244     C      0.150260000000     0.417060000000     0.904480000000     0.429372   
C245     C      0.351630000000     0.164500000000     0.852900000000     0.427655   
C246     C      0.345690000000     0.223560000000     0.737000000000     0.431222   
C247     C      0.315260000000     0.241540000000     0.818850000000     0.428941   
C248     C      0.380900000000     0.144500000000     0.770760000000     0.4293     
C249     C      0.062250000000     0.572670000000     0.971180000000     0.426724   
C250     C      0.062390000000     0.501430000000     0.583880000000     0.42737    
C251     C      0.089230000000     0.486630000000     0.996320000000     0.433926   
C252     C      0.036390000000     0.586070000000     0.558260000000     0.434373   
C253     C      0.675250000000     0.880050000000     0.554830000000     0.423389   
C254     C      0.665880000000     0.827630000000     0.675730000000     0.428445   
C255     C      0.719400000000     0.816040000000     0.600890000000     0.429836   
C256     C      0.623450000000     0.890950000000     0.630800000000     0.428591   
C257     C      0.885870000000     0.702980000000     0.652440000000     0.432191   
C258     C      0.882130000000     0.697840000000     0.526240000000     0.433236   
C259     C      0.830490000000     0.735000000000     0.588780000000     0.426737   
C260     C      0.937700000000     0.667660000000     0.588300000000     0.428687   
C261     C      0.518190000000     0.989160000000     0.789840000000     0.425929   
C262     C      0.467030000000     0.994600000000     0.671300000000     0.434266   
C263     C      0.452250000000     0.033740000000     0.753310000000     0.434749   
C264     C      0.534860000000     0.951360000000     0.708090000000     0.434264   
C265     C      0.350810000000     0.160520000000     0.487390000000     0.430761   
C266     C      0.351370000000     0.212810000000     0.606620000000     0.43325    
C267     C      0.385480000000     0.271210000000     0.527780000000     0.43409    
C268     C      0.317850000000     0.102810000000     0.567760000000     0.43291    
C269     C      0.546230000000     0.573100000000     0.559890000000     0.43431    
C270     C      0.493720000000     0.510390000000     0.943200000000     0.432286   
C271     C      0.476560000000     0.457640000000     0.524390000000     0.430113   
C272     C      0.561130000000     0.622790000000     0.977090000000     0.432938   
C273     C      0.238910000000     0.884260000000     0.711520000000     0.436547   
C274     C      0.190940000000     0.816800000000     0.595220000000     0.426506   
C275     C      0.176660000000     0.767440000000     0.679970000000     0.426935   
C276     C      0.250130000000     0.928740000000     0.626450000000     0.427889   
C277     C      0.063310000000     0.558320000000     0.839820000000     0.428073   
C278     C      0.055110000000     0.502360000000     0.720120000000     0.423954   
C279     C      0.012650000000     0.445640000000     0.800270000000     0.424251   
C280     C      0.104830000000     0.614520000000     0.759430000000     0.431392   
C281     C      0.877090000000     0.208970000000     0.752740000000     0.433483   
C282     C      0.816100000000     0.159060000000     0.870590000000     0.428962   
C283     C      0.903710000000     0.267790000000     0.832130000000     0.433193   
C284     C      0.792110000000     0.102910000000     0.791300000000     0.429819   
C285     C      0.679810000000     0.895610000000     0.920790000000     0.428387   
C286     C      0.663240000000     0.816490000000     0.808440000000     0.425237   
C287     C      0.639050000000     0.781060000000     0.897080000000     0.428486   
C288     C      0.704990000000     0.933740000000     0.832480000000     0.430489   
C289     C      0.713300000000     0.036120000000     0.783570000000    -0.0112721  
C290     C      0.779990000000     0.027280000000     0.771570000000    -0.036314   
C291     C      0.696740000000     0.998340000000     0.810750000000    -0.0108816  
C292     C      0.770720000000     0.993750000000     0.800290000000     0.093416   
C293     C      0.936640000000     0.378890000000     0.813200000000    -0.0127309  
C294     C      0.007940000000     0.370870000000     0.816540000000    -0.043824   
C295     C      0.917920000000     0.346960000000     0.843280000000    -0.00761341 
C296     C      0.984320000000     0.335010000000     0.844860000000     0.094168   
C297     C      0.108540000000     0.700020000000     0.705260000000    -0.0127524  
C298     C      0.183120000000     0.700520000000     0.701560000000    -0.0415608  
C299     C      0.104690000000     0.686020000000     0.741810000000    -0.0100603  
C300     C      0.178150000000     0.685520000000     0.738270000000     0.0916385  
C301     C      0.652060000000     0.729170000000     0.933760000000    -0.0116398  
C302     C      0.583920000000     0.738570000000     0.941040000000    -0.040079   
C303     C      0.623730000000     0.677270000000     0.941610000000    -0.00921816 
C304     C      0.554440000000     0.687790000000     0.952200000000     0.0932219  
C305     C      0.314510000000     0.993600000000     0.596340000000    -0.0118878  
C306     C      0.234660000000     0.976970000000     0.588250000000    -0.0397395  
C307     C      0.331770000000     0.046010000000     0.596840000000    -0.0109249  
C308     C      0.249890000000     0.028900000000     0.587990000000     0.0927689  
C309     C      0.476080000000     0.384360000000     0.537620000000    -0.0111212  
C310     C      0.403120000000     0.386770000000     0.539540000000    -0.0406465  
C311     C      0.454700000000     0.344700000000     0.512470000000    -0.00959008 
C312     C      0.380700000000     0.344560000000     0.515720000000     0.0914816  
C313     C      0.700890000000     0.806600000000     0.758740000000    -0.0140616  
C314     C      0.616650000000     0.771570000000     0.759620000000    -0.0390379  
C315     C      0.704950000000     0.836010000000     0.728290000000    -0.00765523 
C316     C      0.617590000000     0.795520000000     0.726490000000     0.0904486  
C317     C      0.634990000000     0.870800000000     0.501920000000    -0.0114481  
C318     C      0.717220000000     0.936120000000     0.509520000000    -0.0406849  
C319     C      0.638960000000     0.899080000000     0.470640000000    -0.0107736  
C320     C      0.724550000000     0.929830000000     0.472340000000     0.0908728  
C321     C      0.821760000000     0.804180000000     0.582670000000    -0.0125229  
C322     C      0.752560000000     0.723720000000     0.593410000000    -0.0388304  
C323     C      0.795120000000     0.822700000000     0.601630000000    -0.0077826  
C324     C      0.724350000000     0.746940000000     0.583240000000     0.0903224  
C325     C      0.619410000000     0.958510000000     0.653440000000    -0.0120893  
C326     C      0.547880000000     0.881940000000     0.645280000000    -0.0409459  
C327     C      0.607760000000     0.957710000000     0.690180000000    -0.00939231 
C328     C      0.535610000000     0.881370000000     0.682190000000     0.09169    
C329     C      0.021130000000     0.577470000000     0.921390000000    -0.0110847  
C330     C      0.105650000000     0.619730000000     0.922370000000    -0.0386729  
C331     C      0.019920000000     0.551020000000     0.889930000000    -0.0111866  
C332     C      0.108040000000     0.593420000000     0.891600000000     0.0912453  
C333     C      0.093490000000     0.489360000000     0.672270000000    -0.014501   
C334     C      0.013410000000     0.478870000000     0.667220000000    -0.0400637  
C335     C      0.101540000000     0.508960000000     0.636850000000    -0.00729184 
C336     C      0.014150000000     0.460180000000     0.632290000000     0.0913144  
C337     C      0.945130000000     0.598160000000     0.582530000000    -0.0118365  
C338     C      0.014690000000     0.679950000000     0.575870000000    -0.0414349  
C339     C      0.977330000000     0.582420000000     0.595560000000    -0.00641767 
C340     C      0.045650000000     0.659720000000     0.585690000000     0.0932251  
C341     C      0.311630000000     0.113740000000     0.900790000000    -0.0126466  
C342     C      0.396850000000     0.173810000000     0.902980000000    -0.0391708  
C343     C      0.307760000000     0.129320000000     0.935790000000    -0.00668938 
C344     C      0.393570000000     0.156410000000     0.938940000000     0.0921969  
C345     C      0.301920000000     0.222800000000     0.687280000000    -0.00986619 
C346     C      0.385710000000     0.274910000000     0.689120000000    -0.0381968  
C347     C      0.305240000000     0.198670000000     0.656090000000    -0.0103612  
C348     C      0.393170000000     0.252230000000     0.658290000000     0.0920754  
C349     C      0.369390000000     0.068990000000     0.748350000000    -0.0132642  
C350     C      0.448530000000     0.136320000000     0.759220000000    -0.0425832  
C351     C      0.381900000000     0.036180000000     0.767190000000    -0.0112958  
C352     C      0.457760000000     0.104540000000     0.781330000000     0.0951381  
C353     C      0.154300000000     0.487780000000     0.927950000000    -0.0124169  
C354     C      0.079490000000     0.413960000000     0.925560000000    -0.040058   
C355     C      0.152650000000     0.486730000000     0.965900000000    -0.00961192 
C356     C      0.075480000000     0.414310000000     0.963730000000     0.0916306  
C357     C      0.322810000000     0.317950000000     0.834290000000    -0.0140853  
C358     C      0.247730000000     0.242430000000     0.841130000000    -0.0419628  
C359     C      0.312740000000     0.335720000000     0.866860000000    -0.0100677  
C360     C      0.243280000000     0.258690000000     0.875580000000     0.0938318  
C361     C      0.450280000000     0.511260000000     0.895110000000    -0.0109576  
C362     C      0.504620000000     0.478920000000     0.890580000000    -0.0413785  
C363     C      0.445660000000     0.502630000000     0.857680000000    -0.00918677 
C364     C      0.525120000000     0.508460000000     0.859190000000     0.0924553  
C365     C      0.558740000000     0.629500000000     0.643530000000    -0.013259   
C366     C      0.587070000000     0.571180000000     0.642660000000    -0.0373777  
C367     C      0.536800000000     0.610330000000     0.609630000000    -0.00185872 
C368     C      0.599100000000     0.587760000000     0.606560000000     0.0935261  
C369     C      0.778070000000     0.166390000000     0.920710000000    -0.0121867  
C370     C      0.800070000000     0.105990000000     0.918570000000    -0.0394652  
C371     C      0.810450000000     0.192180000000     0.949460000000    -0.00739545 
C372     C      0.828940000000     0.124120000000     0.950310000000     0.099321   
C373     C      0.848500000000     0.223710000000     0.672390000000    -0.0129412  
C374     C      0.881970000000     0.170210000000     0.673050000000    -0.0409491  
C375     C      0.880050000000     0.251000000000     0.701310000000    -0.00808738 
C376     C      0.914740000000     0.200170000000     0.700850000000     0.092243   
C377     C      0.193410000000     0.418360000000     0.775320000000    -0.0122502  
C378     C      0.141370000000     0.330090000000     0.777420000000    -0.042808   
C379     C      0.162930000000     0.420220000000     0.747720000000    -0.0111171  
C380     C      0.113550000000     0.334440000000     0.748840000000     0.0940939  
C381     C      0.268250000000     0.425720000000     0.532550000000    -0.0103694  
C382     C      0.234180000000     0.339910000000     0.534950000000    -0.0407618  
C383     C      0.239310000000     0.421840000000     0.502300000000    -0.00980091 
C384     C      0.202950000000     0.332950000000     0.505070000000     0.0927204  
C385     C      0.027840000000     0.256500000000     0.558010000000    -0.0104797  
C386     C      0.019370000000     0.326420000000     0.555540000000    -0.0390079  
C387     C      0.049790000000     0.269930000000     0.592060000000    -0.00953622 
C388     C      0.047510000000     0.345630000000     0.587760000000     0.0906154  
C389     C      0.373820000000     0.424860000000     0.710740000000    -0.0114743  
C390     C      0.361370000000     0.489940000000     0.727640000000    -0.039581   
C391     C      0.342700000000     0.415440000000     0.680400000000    -0.0109045  
C392     C      0.335440000000     0.486220000000     0.695910000000     0.094535   
C393     C      0.553740000000     0.033340000000     0.840730000000    -0.0138513  
C394     C      0.507350000000     0.944470000000     0.841010000000    -0.0403757  
C395     C      0.580420000000     0.031010000000     0.870790000000    -0.00760194 
C396     C      0.538500000000     0.944580000000     0.868820000000     0.0925612  
C397     C      0.468360000000     0.949310000000     0.596450000000    -0.0126317  
C398     C      0.504750000000     0.037480000000     0.592180000000    -0.0428466  
C399     C      0.433070000000     0.949010000000     0.620740000000    -0.00976805 
C400     C      0.469490000000     0.034960000000     0.617400000000     0.094693   
C401     C      0.658030000000     0.096890000000     0.534800000000    -0.0137993  
C402     C      0.679200000000     0.040040000000     0.509720000000    -0.0417156  
C403     C      0.707810000000     0.135220000000     0.532100000000    -0.00754095 
C404     C      0.729150000000     0.080350000000     0.506570000000     0.100826   
C405     C      0.225710000000     0.835780000000     0.783510000000    -0.0115296  
C406     C      0.192180000000     0.889770000000     0.784320000000    -0.0415442  
C407     C      0.266900000000     0.873270000000     0.764250000000    -0.0101378  
C408     C      0.232740000000     0.924200000000     0.762790000000     0.0945893  
C409     C      0.147730000000     0.817440000000     0.546810000000    -0.0108687  
C410     C      0.222180000000     0.815480000000     0.541060000000    -0.0411814  
C411     C      0.134410000000     0.797110000000     0.512080000000    -0.00855522 
C412     C      0.209760000000     0.799770000000     0.504670000000     0.0930741  
C413     C      0.364310000000     0.870410000000     0.952150000000    -0.0130223  
C414     C      0.364720000000     0.947130000000     0.958300000000    -0.0374459  
C415     C      0.331170000000     0.859290000000     0.922820000000    -0.00620421 
C416     C      0.312920000000     0.916380000000     0.952720000000     0.0949018  
C417     C      0.897950000000     0.738590000000     0.972530000000    -0.0129859  
C418     C      0.853310000000     0.651070000000     0.975010000000    -0.0405404  
C419     C      0.856820000000     0.738480000000     0.956110000000    -0.00942434 
C420     C      0.812550000000     0.651490000000     0.958680000000     0.0945903  
C421     C      0.861260000000     0.660320000000     0.705630000000    -0.0102261  
C422     C      0.905250000000     0.747640000000     0.704910000000    -0.0406361  
C423     C      0.822290000000     0.661030000000     0.724230000000    -0.00847559 
C424     C      0.866190000000     0.748420000000     0.724270000000     0.092036   
C425     C      0.669570000000     0.594390000000     0.846270000000     0.00178023 
C426     C      0.679150000000     0.674340000000     0.846040000000    -0.0382454  
C427     C      0.622660000000     0.577900000000     0.829730000000    -0.0447531  
C428     C      0.645230000000     0.663250000000     0.817440000000     0.0948501  
C429     C      0.987870000000     0.718980000000     0.842900000000    -0.0122707  
C430     C      0.996600000000     0.797160000000     0.855580000000    -0.04173    
C431     C      0.016200000000     0.722950000000     0.874130000000    -0.0122188  
C432     C      0.018930000000     0.797460000000     0.888640000000     0.0937565  
H1       H      0.699530000000     0.015380000000     0.335120000000     0.0392955  
H2       H      0.701770000000     0.061440000000     0.289570000000     0.0430855  
H3       H      0.794590000000     0.013840000000     0.320870000000     0.0258802  
H4       H      0.817190000000     0.046450000000     0.265500000000     0.0496922  
H5       H      0.659610000000     0.973540000000     0.306820000000     0.0441171  
H6       H      0.697170000000     0.018920000000     0.259650000000     0.0361883  
H7       H      0.761360000000     0.006820000000     0.249170000000     0.0449775  
H8       H      0.797320000000     0.949010000000     0.306990000000     0.0933137  
H9       H      0.752660000000     0.929160000000     0.278510000000     0.0918548  
H10      H      0.931500000000     0.368630000000     0.366080000000     0.034647   
H11      H      0.925320000000     0.405150000000     0.314920000000     0.0431548  
H12      H      0.994940000000     0.355250000000     0.368460000000     0.0180582  
H13      H      0.045180000000     0.392160000000     0.322060000000     0.0570446  
H14      H      0.879990000000     0.330510000000     0.344070000000     0.0414667  
H15      H      0.921290000000     0.357940000000     0.290350000000     0.0443648  
H16      H      0.004430000000     0.351730000000     0.293030000000     0.0481556  
H17      H      0.987240000000     0.279090000000     0.365920000000     0.0981344  
H18      H      0.996920000000     0.284800000000     0.323140000000     0.0970796  
H19      H      0.121340000000     0.718500000000     0.256930000000     0.0383865  
H20      H      0.091680000000     0.721220000000     0.201600000000     0.0444704  
H21      H      0.195290000000     0.718210000000     0.253190000000     0.0176151  
H22      H      0.220100000000     0.722530000000     0.195520000000     0.0540212  
H23      H      0.067960000000     0.666670000000     0.249000000000     0.043643   
H24      H      0.089520000000     0.667710000000     0.190200000000     0.0408776  
H25      H      0.168960000000     0.668750000000     0.185730000000     0.0462429  
H26      H      0.205490000000     0.655100000000     0.269320000000     0.0949434  
H27      H      0.189460000000     0.629420000000     0.229910000000     0.0951812  
H28      H      0.613700000000     0.657520000000     0.417860000000     0.0355122  
H29      H      0.679740000000     0.734700000000     0.416120000000     0.0421649  
H30      H      0.531350000000     0.668200000000     0.431130000000     0.0185405  
H31      H      0.561240000000     0.749300000000     0.428470000000     0.0534189  
H32      H      0.646200000000     0.667100000000     0.455140000000     0.0422933  
H33      H      0.668350000000     0.748400000000     0.457060000000     0.0393081  
H34      H      0.598020000000     0.761080000000     0.463410000000     0.0461853  
H35      H      0.492860000000     0.659900000000     0.478990000000     0.0936602  
H36      H      0.542220000000     0.690580000000     0.503140000000     0.0945208  
H37      H      0.336390000000     0.057680000000     0.123160000000     0.039534   
H38      H      0.337000000000     0.986310000000     0.112490000000     0.0433235  
H39      H      0.243530000000     0.038060000000     0.113280000000     0.0188671  
H40      H      0.199020000000     0.957320000000     0.097920000000     0.0539632  
H41      H      0.366210000000     0.063850000000     0.085040000000     0.0440225  
H42      H      0.317140000000     0.983170000000     0.070540000000     0.0391326  
H43      H      0.233620000000     0.965220000000     0.062190000000     0.0454973  
H44      H      0.213520000000     0.061330000000     0.071540000000     0.0941069  
H45      H      0.231970000000     0.038310000000     0.039730000000     0.0950968  
H46      H      0.461070000000     0.360220000000     0.987170000000     0.0387234  
H47      H      0.513670000000     0.405030000000     0.033520000000     0.0430032  
H48      H      0.385830000000     0.359050000000     0.990120000000     0.0203675  
H49      H      0.387660000000     0.409220000000     0.535500000000     0.0551085  
H50      H      0.472270000000     0.323910000000     0.013860000000     0.0426898  
H51      H      0.470250000000     0.368930000000     0.062930000000     0.0381367  
H52      H      0.395540000000     0.373640000000     0.065520000000     0.0451195  
H53      H      0.314280000000     0.292930000000     0.003430000000     0.0965753  
H54      H      0.323730000000     0.303970000000     0.046110000000     0.0961877  
H55      H      0.712630000000     0.871200000000     0.236640000000     0.0393797  
H56      H      0.732910000000     0.825050000000     0.273570000000     0.0416111  
H57      H      0.612580000000     0.825450000000     0.232800000000     0.0193875  
H58      H      0.586920000000     0.766500000000     0.274770000000     0.0512772  
H59      H      0.734410000000     0.840510000000     0.213010000000     0.0380002  
H60      H      0.697020000000     0.772850000000     0.250180000000     0.0406587  
H61      H      0.611430000000     0.736300000000     0.254010000000     0.0467096  
H62      H      0.568270000000     0.779750000000     0.189720000000     0.0952259  
H63      H      0.584680000000     0.737790000000     0.194940000000     0.0994772  
H64      H      0.607690000000     0.878840000000     0.955310000000     0.0412152  
H65      H      0.629660000000     0.836050000000     0.994580000000     0.0417848  
H66      H      0.738310000000     0.905470000000     0.970920000000     0.0253555  
H67      H      0.748660000000     0.943860000000     0.023590000000     0.0517047  
H68      H      0.640250000000     0.932040000000     0.978110000000     0.0400909  
H69      H      0.604270000000     0.864630000000     0.016310000000     0.0377759  
H70      H      0.712100000000     0.966550000000     0.012430000000     0.0496714  
H71      H      0.773050000000     0.969960000000     0.436890000000     0.09503    
H72      H      0.743810000000     0.995300000000     0.953220000000     0.0915221  
H73      H      0.800400000000     0.820800000000     0.128720000000     0.0401351  
H74      H      0.858170000000     0.824540000000     0.090650000000     0.0430421  
H75      H      0.690060000000     0.726170000000     0.094940000000     0.025522   
H76      H      0.746770000000     0.714830000000     0.120260000000     0.0454356  
H77      H      0.809710000000     0.860200000000     0.095230000000     0.0409184  
H78      H      0.821120000000     0.810960000000     0.055730000000     0.0359838  
H79      H      0.739450000000     0.690070000000     0.079920000000     0.0510055  
H80      H      0.693000000000     0.753520000000     0.041070000000     0.0929242  
H81      H      0.748090000000     0.765860000000     0.034720000000     0.0905715  
H82      H      0.623900000000     0.940590000000     0.204090000000     0.0384553  
H83      H      0.657210000000     0.978080000000     0.150170000000     0.044848   
H84      H      0.550600000000     0.862840000000     0.195800000000     0.018526   
H85      H      0.533680000000     0.845520000000     0.136300000000     0.0535112  
H86      H      0.623450000000     0.994090000000     0.199530000000     0.0429821  
H87      H      0.605130000000     0.977510000000     0.139640000000     0.0411974  
H88      H      0.531470000000     0.898220000000     0.130720000000     0.0450731  
H89      H      0.476420000000     0.847010000000     0.211020000000     0.0969601  
H90      H      0.469140000000     0.869460000000     0.173490000000     0.0941024  
H91      H      0.009890000000     0.514670000000     0.397100000000     0.0389731  
H92      H      0.989550000000     0.556140000000     0.436210000000     0.0415932  
H93      H      0.114210000000     0.565160000000     0.400470000000     0.0208352  
H94      H      0.136470000000     0.630270000000     0.438050000000     0.0534372  
H95      H      0.992250000000     0.548660000000     0.373570000000     0.0422091  
H96      H      0.021250000000     0.609850000000     0.413740000000     0.036473   
H97      H      0.106150000000     0.652090000000     0.414070000000     0.0461474  
H98      H      0.162560000000     0.609800000000     0.359240000000     0.094561   
H99      H      0.138380000000     0.645130000000     0.355050000000     0.0883235  
H100     H      0.115310000000     0.547280000000     0.138300000000     0.0423775  
H101     H      0.125420000000     0.510640000000     0.186760000000     0.0412414  
H102     H      0.987480000000     0.463100000000     0.117850000000     0.0221033  
H103     H      0.011690000000     0.511430000000     0.164420000000     0.0482182  
H104     H      0.128320000000     0.503840000000     0.124670000000     0.0320361  
H105     H      0.087770000000     0.453320000000     0.171920000000     0.0387701  
H106     H      0.981530000000     0.453570000000     0.180420000000     0.0513849  
H107     H      0.995090000000     0.397490000000     0.109170000000     0.0939039  
H108     H      0.023900000000     0.404610000000     0.145650000000     0.0903206  
H109     H      0.982070000000     0.589810000000     0.122680000000     0.0349308  
H110     H      0.912510000000     0.579370000000     0.096700000000     0.0428767  
H111     H      0.051330000000     0.664790000000     0.112990000000     0.019371   
H112     H      0.028840000000     0.715110000000     0.087290000000     0.0552279  
H113     H      0.961480000000     0.544010000000     0.092520000000     0.0399042  
H114     H      0.937360000000     0.587790000000     0.056010000000     0.0447201  
H115     H      0.016320000000     0.684980000000     0.048490000000     0.047933   
H116     H      0.114480000000     0.679730000000     0.579960000000     0.100443   
H117     H      0.087430000000     0.680880000000     0.543350000000     0.0964168  
H118     H      0.298030000000     0.156800000000     0.433830000000     0.0436981  
H119     H      0.280010000000     0.105820000000     0.386920000000     0.0421094  
H120     H      0.423800000000     0.184650000000     0.452140000000     0.0222554  
H121     H      0.408820000000     0.211830000000     0.403860000000     0.051222   
H122     H      0.279460000000     0.099450000000     0.449240000000     0.0345825  
H123     H      0.312570000000     0.080760000000     0.401850000000     0.0357955  
H124     H      0.423650000000     0.170450000000     0.389160000000     0.0503038  
H125     H      0.404950000000     0.109230000000     0.964660000000     0.0906907  
H126     H      0.368540000000     0.084950000000     0.932030000000     0.0898506  
H127     H      0.300020000000     0.163870000000     0.163280000000     0.0403721  
H128     H      0.271080000000     0.198330000000     0.201790000000     0.0412412  
H129     H      0.404910000000     0.227950000000     0.166960000000     0.0232885  
H130     H      0.416730000000     0.289400000000     0.205100000000     0.0543937  
H131     H      0.276270000000     0.192200000000     0.139490000000     0.0415746  
H132     H      0.297580000000     0.252650000000     0.179540000000     0.0350701  
H133     H      0.381050000000     0.304480000000     0.181060000000     0.0455985  
H134     H      0.449180000000     0.277570000000     0.126010000000     0.0955112  
H135     H      0.416600000000     0.304560000000     0.121970000000     0.0896243  
H136     H      0.369240000000     0.032530000000     0.293130000000     0.0402068  
H137     H      0.332280000000     0.056370000000     0.251710000000     0.0446024  
H138     H      0.443360000000     0.104550000000     0.306230000000     0.0221701  
H139     H      0.468600000000     0.172860000000     0.268280000000     0.0552063  
H140     H      0.363960000000     0.001090000000     0.255400000000     0.0447097  
H141     H      0.375290000000     0.066560000000     0.221440000000     0.0385327  
H142     H      0.460110000000     0.135220000000     0.233530000000     0.0478944  
H143     H      0.513320000000     0.099250000000     0.298990000000     0.0939493  
H144     H      0.525840000000     0.134940000000     0.263980000000     0.0946641  
H145     H      0.169240000000     0.466980000000     0.974970000000     0.0374956  
H146     H      0.190540000000     0.506230000000     0.419520000000     0.0428846  
H147     H      0.089840000000     0.392820000000     0.473530000000     0.0211348  
H148     H      0.061460000000     0.377440000000     0.416220000000     0.0551348  
H149     H      0.173270000000     0.523090000000     0.475150000000     0.0427718  
H150     H      0.137990000000     0.507790000000     0.418890000000     0.0398119  
H151     H      0.062250000000     0.432080000000     0.414630000000     0.0469432  
H152     H      0.023410000000     0.388420000000     0.499190000000     0.0965284  
H153     H      0.009800000000     0.406730000000     0.462370000000     0.0968927  
H154     H      0.331340000000     0.329550000000     0.387260000000     0.0369897  
H155     H      0.360330000000     0.331970000000     0.332190000000     0.0443775  
H156     H      0.264440000000     0.250590000000     0.392620000000     0.0195045  
H157     H      0.231880000000     0.203790000000     0.341470000000     0.0546732  
H158     H      0.327080000000     0.374040000000     0.364980000000     0.0424852  
H159     H      0.312580000000     0.332560000000     0.313260000000     0.0396479  
H160     H      0.228640000000     0.251660000000     0.322960000000     0.0481999  
H161     H      0.192450000000     0.242100000000     0.411320000000     0.0927059  
H162     H      0.172060000000     0.231170000000     0.370240000000     0.09512    
H163     H      0.421400000000     0.464920000000     0.353250000000     0.0338618  
H164     H      0.415960000000     0.491290000000     0.406930000000     0.039504   
H165     H      0.536360000000     0.488710000000     0.343060000000     0.0181452  
H166     H      0.478270000000     0.443160000000     0.382780000000     0.0439004  
H167     H      0.430170000000     0.522140000000     0.346200000000     0.0367698  
H168     H      0.462530000000     0.548880000000     0.399670000000     0.0410206  
H169     H      0.531250000000     0.475250000000     0.404350000000     0.0481123  
H170     H      0.556540000000     0.579830000000     0.369600000000     0.0950916  
H171     H      0.580590000000     0.553090000000     0.389500000000     0.0885149  
H172     H      0.500390000000     0.582950000000     0.113350000000     0.0438146  
H173     H      0.536410000000     0.639090000000     0.157770000000     0.0421016  
H174     H      0.606040000000     0.562200000000     0.093570000000     0.019061   
H175     H      0.562640000000     0.532900000000     0.142370000000     0.0514801  
H176     H      0.536680000000     0.638640000000     0.094800000000     0.0334299  
H177     H      0.592240000000     0.661890000000     0.139900000000     0.0462802  
H178     H      0.617970000000     0.576140000000     0.156210000000     0.0462558  
H179     H      0.668120000000     0.631250000000     0.115010000000     0.079855   
H180     H      0.647770000000     0.643950000000     0.080280000000     0.091909   
H181     H      0.839020000000     0.225760000000     0.440000000000     0.0422633  
H182     H      0.772730000000     0.191530000000     0.405740000000     0.0419333  
H183     H      0.864690000000     0.135870000000     0.442210000000     0.0237052  
H184     H      0.813840000000     0.088630000000     0.402340000000     0.050684   
H185     H      0.791610000000     0.201260000000     0.467950000000     0.0391895  
H186     H      0.744370000000     0.139720000000     0.430930000000     0.0363286  
H187     H      0.764590000000     0.078990000000     0.425540000000     0.0446177  
H188     H      0.843880000000     0.086750000000     0.986460000000     0.0989764  
H189     H      0.792070000000     0.075660000000     0.987190000000     0.0833191  
H190     H      0.911910000000     0.280420000000     0.190730000000     0.037487   
H191     H      0.843510000000     0.248150000000     0.156350000000     0.0437347  
H192     H      0.945580000000     0.228960000000     0.188610000000     0.0190743  
H193     H      0.899710000000     0.156590000000     0.157200000000     0.0533064  
H194     H      0.863630000000     0.266500000000     0.216700000000     0.0411552  
H195     H      0.814480000000     0.198170000000     0.182790000000     0.0419473  
H196     H      0.851510000000     0.139890000000     0.184330000000     0.0476843  
H197     H      0.955400000000     0.193130000000     0.236790000000     0.0970824  
H198     H      0.901830000000     0.143110000000     0.231120000000     0.094935   
H199     H      0.135020000000     0.423960000000     0.259400000000     0.0393611  
H200     H      0.205670000000     0.449950000000     0.291130000000     0.0396106  
H201     H      0.086530000000     0.339590000000     0.260660000000     0.0193072  
H202     H      0.117670000000     0.301740000000     0.294400000000     0.052934   
H203     H      0.183680000000     0.451520000000     0.232040000000     0.0384251  
H204     H      0.223890000000     0.419450000000     0.263740000000     0.038762   
H205     H      0.165490000000     0.319630000000     0.267040000000     0.0484265  
H206     H      0.074210000000     0.295850000000     0.208460000000     0.0923493  
H207     H      0.111470000000     0.277990000000     0.223150000000     0.0958212  
H208     H      0.209760000000     0.425280000000     0.010880000000     0.0380974  
H209     H      0.276090000000     0.457450000000     0.047060000000     0.0409497  
H210     H      0.168680000000     0.324230000000     0.014880000000     0.0206332  
H211     H      0.217460000000     0.308650000000     0.051280000000     0.0534766  
H212     H      0.260030000000     0.451980000000     0.985630000000     0.0409147  
H213     H      0.301280000000     0.429810000000     0.023590000000     0.0376926  
H214     H      0.266760000000     0.343320000000     0.025650000000     0.0506745  
H215     H      0.166780000000     0.275690000000     0.473610000000     0.0932571  
H216     H      0.225940000000     0.303330000000     0.469280000000     0.0891926  
H217     H      0.022640000000     0.253140000000     0.111290000000     0.040745   
H218     H      0.010300000000     0.217990000000     0.054980000000     0.0426528  
H219     H      0.022520000000     0.338580000000     0.108090000000     0.0165729  
H220     H      0.994520000000     0.339110000000     0.053350000000     0.0525318  
H221     H      0.072940000000     0.255200000000     0.094450000000     0.0426847  
H222     H      0.055300000000     0.272400000000     0.038900000000     0.0377305  
H223     H      0.043200000000     0.340410000000     0.034030000000     0.045651   
H224     H      0.085180000000     0.413310000000     0.106940000000     0.0971553  
H225     H      0.104470000000     0.405320000000     0.068430000000     0.0987743  
H226     H      0.365020000000     0.429890000000     0.158170000000     0.0381875  
H227     H      0.400420000000     0.415550000000     0.204590000000     0.0429414  
H228     H      0.360490000000     0.510420000000     0.177300000000     0.0219977  
H229     H      0.377770000000     0.526390000000     0.237000000000     0.0559213  
H230     H      0.321790000000     0.377080000000     0.176630000000     0.0425527  
H231     H      0.352560000000     0.401740000000     0.231310000000     0.0387549  
H232     H      0.336400000000     0.467220000000     0.246870000000     0.0464805  
H233     H      0.296100000000     0.517000000000     0.183270000000     0.0948673  
H234     H      0.272690000000     0.475410000000     0.215060000000     0.0916167  
H235     H      0.612140000000     0.032440000000     0.361390000000     0.0357807  
H236     H      0.577650000000     0.062560000000     0.324420000000     0.0410686  
H237     H      0.569100000000     0.946420000000     0.356730000000     0.019879   
H238     H      0.498310000000     0.914260000000     0.324310000000     0.0513636  
H239     H      0.591290000000     0.062310000000     0.386670000000     0.0410098  
H240     H      0.527740000000     0.042050000000     0.349790000000     0.0399686  
H241     H      0.475040000000     0.939790000000     0.352030000000     0.0503091  
H242     H      0.537020000000     0.896940000000     0.403380000000     0.0973943  
H243     H      0.485080000000     0.896380000000     0.399240000000     0.0949522  
H244     H      0.403310000000     0.945250000000     0.106230000000     0.0379288  
H245     H      0.451390000000     0.917120000000     0.081050000000     0.0406205  
H246     H      0.439370000000     0.030010000000     0.102710000000     0.0186756  
H247     H      0.512480000000     0.065890000000     0.074100000000     0.0533088  
H248     H      0.420710000000     0.918250000000     0.137420000000     0.0381525  
H249     H      0.496080000000     0.948640000000     0.111000000000     0.0395061  
H250     H      0.537140000000     0.046870000000     0.105510000000     0.0478076  
H251     H      0.464080000000     0.075250000000     0.154940000000     0.0917397  
H252     H      0.520160000000     0.091890000000     0.144440000000     0.0953299  
H253     H      0.712750000000     0.153800000000     0.008080000000     0.0373906  
H254     H      0.635780000000     0.112430000000     0.030800000000     0.0420096  
H255     H      0.731970000000     0.097200000000     0.982100000000     0.0169079  
H256     H      0.670740000000     0.016190000000     0.488090000000     0.0480605  
H257     H      0.714740000000     0.160590000000     0.052510000000     0.0409607  
H258     H      0.651800000000     0.083050000000     0.060600000000     0.0382682  
H259     H      0.675810000000     0.019780000000     0.032640000000     0.0532765  
H260     H      0.783190000000     0.071790000000     0.992420000000     0.0816611  
H261     H      0.766440000000     0.050150000000     0.029310000000     0.105384   
H262     H      0.292930000000     0.897620000000     0.282260000000     0.0388951  
H263     H      0.237760000000     0.817210000000     0.300110000000     0.0416721  
H264     H      0.260030000000     0.948120000000     0.280270000000     0.0200119  
H265     H      0.182240000000     0.909410000000     0.301600000000     0.0520929  
H266     H      0.282610000000     0.856480000000     0.249470000000     0.0411277  
H267     H      0.200760000000     0.809990000000     0.265610000000     0.0418498  
H268     H      0.162330000000     0.868600000000     0.267880000000     0.0494103  
H269     H      0.247050000000     0.972310000000     0.224900000000     0.0905778  
H270     H      0.189110000000     0.933770000000     0.230290000000     0.0962698  
H271     H      0.114530000000     0.758430000000     0.014090000000     0.0368233  
H272     H      0.116300000000     0.801610000000     0.062450000000     0.0434495  
H273     H      0.194350000000     0.761150000000     0.004400000000     0.0223428  
H274     H      0.237640000000     0.795670000000     0.052100000000     0.0532934  
H275     H      0.111510000000     0.808610000000     0.000750000000     0.0343302  
H276     H      0.160530000000     0.855590000000     0.045460000000     0.0403411  
H277     H      0.249230000000     0.852890000000     0.041880000000     0.0535016  
H278     H      0.245790000000     0.806570000000     0.460510000000     0.106125   
H279     H      0.267380000000     0.851280000000     0.484020000000     0.0804721  
H280     H      0.351310000000     0.871790000000     0.399470000000     0.0375065  
H281     H      0.388060000000     0.857220000000     0.446230000000     0.0399813  
H282     H      0.301770000000     0.941530000000     0.444920000000     0.0213652  
H283     H      0.379230000000     0.973160000000     0.937830000000     0.0506342  
H284     H      0.309300000000     0.820800000000     0.420480000000     0.0383064  
H285     H      0.344590000000     0.851470000000     0.474560000000     0.0456802  
H286     H      0.371160000000     0.967540000000     0.981630000000     0.0503912  
H287     H      0.264930000000     0.905030000000     0.489380000000     0.0922945  
H288     H      0.273180000000     0.862960000000     0.483940000000     0.0836964  
H289     H      0.835140000000     0.741030000000     0.475900000000     0.0378238  
H290     H      0.917290000000     0.770920000000     0.487490000000     0.0426153  
H291     H      0.791760000000     0.654120000000     0.479160000000     0.0231334  
H292     H      0.841210000000     0.620380000000     0.491740000000     0.0528502  
H293     H      0.869490000000     0.769830000000     0.440000000000     0.0421837  
H294     H      0.920940000000     0.738660000000     0.452700000000     0.0394438  
H295     H      0.874660000000     0.647900000000     0.455250000000     0.0471697  
H296     H      0.757710000000     0.610000000000     0.427390000000     0.0927506  
H297     H      0.801490000000     0.596450000000     0.426630000000     0.095234   
H298     H      0.797620000000     0.660450000000     0.205610000000     0.0405563  
H299     H      0.847530000000     0.628390000000     0.190050000000     0.0423619  
H300     H      0.842390000000     0.749370000000     0.205510000000     0.0201633  
H301     H      0.922220000000     0.778790000000     0.188490000000     0.0534228  
H302     H      0.803650000000     0.628870000000     0.239490000000     0.0430535  
H303     H      0.884850000000     0.658710000000     0.224230000000     0.0400596  
H304     H      0.931080000000     0.749330000000     0.222920000000     0.0461702  
H305     H      0.859140000000     0.796850000000     0.253090000000     0.0968925  
H306     H      0.907890000000     0.792850000000     0.262280000000     0.0954481  
H307     H      0.614090000000     0.545190000000     0.316200000000     0.0522293  
H308     H      0.685190000000     0.574820000000     0.335150000000     0.0429468  
H309     H      0.664670000000     0.685690000000     0.295950000000     0.022319   
H310     H      0.704530000000     0.712320000000     0.346140000000     0.0568735  
H311     H      0.593160000000     0.565940000000     0.348740000000     0.102778   
H312     H      0.664230000000     0.585080000000     0.373050000000     0.0265156  
H313     H      0.660290000000     0.665980000000     0.370010000000     0.0445626  
H314     H      0.601370000000     0.689310000000     0.307780000000     0.0970787  
H315     H      0.582140000000     0.647250000000     0.338350000000     0.0931123  
H316     H      0.991890000000     0.703470000000     0.394570000000     0.0380267  
H317     H      0.962480000000     0.681670000000     0.338280000000     0.0428739  
H318     H      0.990530000000     0.777310000000     0.406530000000     0.0193769  
H319     H      0.978330000000     0.817190000000     0.358100000000     0.0537335  
H320     H      0.036530000000     0.705560000000     0.369140000000     0.0435486  
H321     H      0.011690000000     0.731680000000     0.321360000000     0.0376055  
H322     H      0.023810000000     0.814700000000     0.336470000000     0.0458712  
H323     H      0.059420000000     0.845860000000     0.424880000000     0.0957716  
H324     H      0.068580000000     0.868750000000     0.384390000000     0.0956638  
H325     H      0.699530000000     0.015380000000     0.835120000000     0.0393234  
H326     H      0.701770000000     0.061440000000     0.789570000000     0.043044   
H327     H      0.794590000000     0.013840000000     0.820870000000     0.0258758  
H328     H      0.817190000000     0.046450000000     0.765500000000     0.0496922  
H329     H      0.659610000000     0.973540000000     0.806820000000     0.0441463  
H330     H      0.697170000000     0.018920000000     0.759650000000     0.0361515  
H331     H      0.761360000000     0.006820000000     0.749180000000     0.0449988  
H332     H      0.797320000000     0.949010000000     0.806990000000     0.0933132  
H333     H      0.752660000000     0.929160000000     0.778510000000     0.0918557  
H334     H      0.931500000000     0.368630000000     0.866080000000     0.0346247  
H335     H      0.925310000000     0.405150000000     0.814920000000     0.043142   
H336     H      0.994940000000     0.355260000000     0.868460000000     0.0180621  
H337     H      0.045180000000     0.392150000000     0.822050000000     0.0570384  
H338     H      0.879990000000     0.330510000000     0.844070000000     0.0414426  
H339     H      0.921290000000     0.357930000000     0.790350000000     0.0443677  
H340     H      0.004440000000     0.351730000000     0.793030000000     0.0481443  
H341     H      0.987240000000     0.279090000000     0.865920000000     0.0981299  
H342     H      0.996920000000     0.284800000000     0.823140000000     0.0970755  
H343     H      0.121340000000     0.718500000000     0.756930000000     0.0383888  
H344     H      0.091680000000     0.721220000000     0.701600000000     0.0444696  
H345     H      0.195290000000     0.718220000000     0.753190000000     0.0176195  
H346     H      0.220100000000     0.722530000000     0.695520000000     0.0540117  
H347     H      0.067960000000     0.666670000000     0.749000000000     0.0436447  
H348     H      0.089520000000     0.667710000000     0.690200000000     0.0408711  
H349     H      0.168960000000     0.668750000000     0.685730000000     0.0462234  
H350     H      0.205490000000     0.655100000000     0.769320000000     0.0949257  
H351     H      0.189460000000     0.629420000000     0.729910000000     0.095132   
H352     H      0.613700000000     0.657520000000     0.917860000000     0.0355313  
H353     H      0.679740000000     0.734700000000     0.916120000000     0.0421586  
H354     H      0.531350000000     0.668200000000     0.931130000000     0.0185446  
H355     H      0.561240000000     0.749310000000     0.928480000000     0.0534254  
H356     H      0.646200000000     0.667100000000     0.955140000000     0.0423077  
H357     H      0.668350000000     0.748400000000     0.957060000000     0.0392984  
H358     H      0.598020000000     0.761080000000     0.963410000000     0.0461889  
H359     H      0.492860000000     0.659900000000     0.978990000000     0.0936557  
H360     H      0.542220000000     0.690580000000     0.003140000000     0.0945483  
H361     H      0.336390000000     0.057680000000     0.623160000000     0.0395354  
H362     H      0.337000000000     0.986310000000     0.612490000000     0.0433282  
H363     H      0.243530000000     0.038060000000     0.613280000000     0.0188684  
H364     H      0.199020000000     0.957320000000     0.597920000000     0.053958   
H365     H      0.366210000000     0.063850000000     0.585040000000     0.0440192  
H366     H      0.317140000000     0.983180000000     0.570540000000     0.0391308  
H367     H      0.233620000000     0.965220000000     0.562190000000     0.0454887  
H368     H      0.213520000000     0.061330000000     0.571540000000     0.0941042  
H369     H      0.231970000000     0.038310000000     0.539730000000     0.0950869  
H370     H      0.461070000000     0.360220000000     0.487170000000     0.0387575  
H371     H      0.513670000000     0.405030000000     0.533520000000     0.0429867  
H372     H      0.385820000000     0.359050000000     0.490120000000     0.0204013  
H373     H      0.387660000000     0.409220000000     0.035500000000     0.055131   
H374     H      0.472270000000     0.323910000000     0.513860000000     0.0426919  
H375     H      0.470250000000     0.368930000000     0.562930000000     0.0381313  
H376     H      0.395540000000     0.373640000000     0.565530000000     0.0450913  
H377     H      0.314280000000     0.292930000000     0.503430000000     0.0965522  
H378     H      0.323730000000     0.303970000000     0.546120000000     0.0961311  
H379     H      0.712630000000     0.871200000000     0.736640000000     0.0393826  
H380     H      0.732910000000     0.825050000000     0.773570000000     0.0416184  
H381     H      0.612590000000     0.825450000000     0.732800000000     0.0193954  
H382     H      0.586920000000     0.766490000000     0.774770000000     0.0512878  
H383     H      0.734410000000     0.840500000000     0.713010000000     0.038004   
H384     H      0.697010000000     0.772840000000     0.750180000000     0.0406611  
H385     H      0.611430000000     0.736300000000     0.754000000000     0.0467095  
H386     H      0.568270000000     0.779750000000     0.689720000000     0.0952876  
H387     H      0.584680000000     0.737790000000     0.694940000000     0.0995251  
H388     H      0.607690000000     0.878840000000     0.455310000000     0.0412037  
H389     H      0.629660000000     0.836060000000     0.494580000000     0.0418374  
H390     H      0.738310000000     0.905470000000     0.470920000000     0.0253538  
H391     H      0.748660000000     0.943850000000     0.523590000000     0.0517048  
H392     H      0.640250000000     0.932040000000     0.478110000000     0.0400844  
H393     H      0.604270000000     0.864630000000     0.516310000000     0.0377832  
H394     H      0.712100000000     0.966550000000     0.512430000000     0.0496655  
H395     H      0.773050000000     0.969960000000     0.936890000000     0.095016   
H396     H      0.743810000000     0.995300000000     0.453230000000     0.0915453  
H397     H      0.800390000000     0.820800000000     0.628720000000     0.0401411  
H398     H      0.858170000000     0.824540000000     0.590640000000     0.0430547  
H399     H      0.690060000000     0.726170000000     0.594940000000     0.025512   
H400     H      0.746770000000     0.714830000000     0.620260000000     0.0454251  
H401     H      0.809710000000     0.860200000000     0.595230000000     0.0409157  
H402     H      0.821120000000     0.810970000000     0.555730000000     0.0359915  
H403     H      0.739450000000     0.690070000000     0.579920000000     0.0509915  
H404     H      0.693010000000     0.753520000000     0.541080000000     0.0929885  
H405     H      0.748090000000     0.765860000000     0.534720000000     0.0905744  
H406     H      0.623900000000     0.940590000000     0.704090000000     0.0384618  
H407     H      0.657210000000     0.978070000000     0.650180000000     0.0448557  
H408     H      0.550590000000     0.862840000000     0.695800000000     0.0185241  
H409     H      0.533680000000     0.845520000000     0.636300000000     0.0535115  
H410     H      0.623450000000     0.994090000000     0.699530000000     0.0429846  
H411     H      0.605130000000     0.977510000000     0.639640000000     0.0411985  
H412     H      0.531470000000     0.898220000000     0.630720000000     0.0450723  
H413     H      0.476420000000     0.847020000000     0.711020000000     0.0969857  
H414     H      0.469140000000     0.869450000000     0.673490000000     0.094142   
H415     H      0.009890000000     0.514670000000     0.897100000000     0.0389768  
H416     H      0.989550000000     0.556140000000     0.936210000000     0.0415763  
H417     H      0.114210000000     0.565160000000     0.900470000000     0.0208298  
H418     H      0.136470000000     0.630270000000     0.938050000000     0.0534099  
H419     H      0.992250000000     0.548660000000     0.873570000000     0.0422038  
H420     H      0.021250000000     0.609850000000     0.913740000000     0.0364531  
H421     H      0.106150000000     0.652090000000     0.914070000000     0.0461331  
H422     H      0.162560000000     0.609800000000     0.859240000000     0.0945194  
H423     H      0.138380000000     0.645130000000     0.855050000000     0.0883531  
H424     H      0.115310000000     0.547280000000     0.638300000000     0.0423696  
H425     H      0.125420000000     0.510640000000     0.686760000000     0.0412832  
H426     H      0.987480000000     0.463100000000     0.617860000000     0.022087   
H427     H      0.011690000000     0.511430000000     0.664420000000     0.0482179  
H428     H      0.128320000000     0.503840000000     0.624670000000     0.0320381  
H429     H      0.087760000000     0.453320000000     0.671920000000     0.0388167  
H430     H      0.981530000000     0.453570000000     0.680420000000     0.0513849  
H431     H      0.995090000000     0.397490000000     0.609170000000     0.0939062  
H432     H      0.023900000000     0.404610000000     0.645650000000     0.0903206  
H433     H      0.982080000000     0.589810000000     0.622670000000     0.0349451  
H434     H      0.912510000000     0.579370000000     0.596700000000     0.0428784  
H435     H      0.051330000000     0.664790000000     0.612990000000     0.0193726  
H436     H      0.028840000000     0.715110000000     0.587290000000     0.0552443  
H437     H      0.961480000000     0.544010000000     0.592520000000     0.0399081  
H438     H      0.937360000000     0.587790000000     0.556010000000     0.0447195  
H439     H      0.016310000000     0.684980000000     0.548490000000     0.0479426  
H440     H      0.114480000000     0.679730000000     0.079960000000     0.10045    
H441     H      0.087430000000     0.680880000000     0.043360000000     0.096485   
H442     H      0.298030000000     0.156800000000     0.933830000000     0.0436888  
H443     H      0.280010000000     0.105820000000     0.886920000000     0.042109   
H444     H      0.423800000000     0.184650000000     0.952140000000     0.0222378  
H445     H      0.408820000000     0.211830000000     0.903860000000     0.0512518  
H446     H      0.279460000000     0.099450000000     0.949240000000     0.0345739  
H447     H      0.312570000000     0.080760000000     0.901850000000     0.0357981  
H448     H      0.423650000000     0.170450000000     0.889160000000     0.0503352  
H449     H      0.404950000000     0.109230000000     0.464660000000     0.0906985  
H450     H      0.368540000000     0.084950000000     0.432030000000     0.0898513  
H451     H      0.300020000000     0.163870000000     0.663280000000     0.0403763  
H452     H      0.271080000000     0.198330000000     0.701790000000     0.0412397  
H453     H      0.404910000000     0.227950000000     0.666960000000     0.0232938  
H454     H      0.416730000000     0.289400000000     0.705100000000     0.0543875  
H455     H      0.276270000000     0.192200000000     0.639490000000     0.0415727  
H456     H      0.297580000000     0.252650000000     0.679540000000     0.0350681  
H457     H      0.381050000000     0.304480000000     0.681060000000     0.0455926  
H458     H      0.449190000000     0.277570000000     0.626010000000     0.0955024  
H459     H      0.416600000000     0.304560000000     0.621970000000     0.0896714  
H460     H      0.369240000000     0.032530000000     0.793130000000     0.0402093  
H461     H      0.332280000000     0.056370000000     0.751710000000     0.0445873  
H462     H      0.443360000000     0.104550000000     0.806230000000     0.0221692  
H463     H      0.468600000000     0.172860000000     0.768280000000     0.0552051  
H464     H      0.363960000000     0.001090000000     0.755400000000     0.0447146  
H465     H      0.375290000000     0.066560000000     0.721440000000     0.0385212  
H466     H      0.460110000000     0.135220000000     0.733530000000     0.0478936  
H467     H      0.513320000000     0.099250000000     0.798990000000     0.0939496  
H468     H      0.525840000000     0.134940000000     0.763980000000     0.0946644  
H469     H      0.169240000000     0.466980000000     0.474970000000     0.0375041  
H470     H      0.190540000000     0.506230000000     0.919520000000     0.0428791  
H471     H      0.089840000000     0.392810000000     0.973530000000     0.0211331  
H472     H      0.061460000000     0.377440000000     0.916220000000     0.0551332  
H473     H      0.173270000000     0.523090000000     0.975150000000     0.0427649  
H474     H      0.137990000000     0.507790000000     0.918890000000     0.0398087  
H475     H      0.062250000000     0.432080000000     0.914630000000     0.0469427  
H476     H      0.023410000000     0.388420000000     0.999190000000     0.0965226  
H477     H      0.009800000000     0.406720000000     0.962370000000     0.09693    
H478     H      0.331340000000     0.329550000000     0.887260000000     0.036978   
H479     H      0.360330000000     0.331970000000     0.832190000000     0.044379   
H480     H      0.264440000000     0.250590000000     0.892620000000     0.0195039  
H481     H      0.231880000000     0.203790000000     0.841470000000     0.054676   
H482     H      0.327080000000     0.374040000000     0.864980000000     0.0424841  
H483     H      0.312580000000     0.332560000000     0.813260000000     0.0396544  
H484     H      0.228640000000     0.251650000000     0.822960000000     0.0482114  
H485     H      0.192450000000     0.242100000000     0.911320000000     0.0926988  
H486     H      0.172060000000     0.231170000000     0.870240000000     0.0951218  
H487     H      0.421400000000     0.464920000000     0.853250000000     0.0338312  
H488     H      0.415960000000     0.491290000000     0.906930000000     0.0395078  
H489     H      0.536360000000     0.488720000000     0.843060000000     0.0181345  
H490     H      0.478270000000     0.443160000000     0.882780000000     0.0438879  
H491     H      0.430170000000     0.522140000000     0.846200000000     0.0367376  
H492     H      0.462530000000     0.548880000000     0.899670000000     0.0410288  
H493     H      0.531250000000     0.475240000000     0.904350000000     0.0480854  
H494     H      0.556540000000     0.579840000000     0.869600000000     0.095032   
H495     H      0.580590000000     0.553090000000     0.889500000000     0.0885137  
H496     H      0.500390000000     0.582950000000     0.613350000000     0.0438145  
H497     H      0.536410000000     0.639100000000     0.657770000000     0.0420882  
H498     H      0.606040000000     0.562200000000     0.593570000000     0.0190555  
H499     H      0.562640000000     0.532900000000     0.642370000000     0.0515064  
H500     H      0.536680000000     0.638640000000     0.594800000000     0.0334276  
H501     H      0.592230000000     0.661890000000     0.639900000000     0.0462761  
H502     H      0.617970000000     0.576140000000     0.656210000000     0.0462912  
H503     H      0.668120000000     0.631250000000     0.615010000000     0.0799135  
H504     H      0.647770000000     0.643950000000     0.580280000000     0.0919194  
H505     H      0.839020000000     0.225760000000     0.940000000000     0.0422691  
H506     H      0.772730000000     0.191530000000     0.905740000000     0.0419313  
H507     H      0.864690000000     0.135870000000     0.942210000000     0.0237127  
H508     H      0.813840000000     0.088630000000     0.902340000000     0.0506616  
H509     H      0.791610000000     0.201260000000     0.967940000000     0.039186   
H510     H      0.744370000000     0.139720000000     0.930930000000     0.0363254  
H511     H      0.764590000000     0.078990000000     0.925550000000     0.0446044  
H512     H      0.843880000000     0.086750000000     0.486460000000     0.098989   
H513     H      0.792070000000     0.075660000000     0.487190000000     0.0833584  
H514     H      0.911910000000     0.280420000000     0.690720000000     0.0374964  
H515     H      0.843510000000     0.248150000000     0.656350000000     0.043728   
H516     H      0.945580000000     0.228960000000     0.688610000000     0.0190737  
H517     H      0.899710000000     0.156590000000     0.657200000000     0.0532979  
H518     H      0.863640000000     0.266500000000     0.716700000000     0.0411683  
H519     H      0.814480000000     0.198170000000     0.682790000000     0.0419398  
H520     H      0.851510000000     0.139890000000     0.684330000000     0.0476829  
H521     H      0.955400000000     0.193130000000     0.736790000000     0.0970774  
H522     H      0.901830000000     0.143110000000     0.731120000000     0.0949287  
H523     H      0.135010000000     0.423960000000     0.759400000000     0.0393432  
H524     H      0.205670000000     0.449950000000     0.791130000000     0.0396094  
H525     H      0.086530000000     0.339590000000     0.760660000000     0.0193182  
H526     H      0.117670000000     0.301740000000     0.794400000000     0.0529311  
H527     H      0.183680000000     0.451520000000     0.732040000000     0.0384227  
H528     H      0.223890000000     0.419450000000     0.763740000000     0.0387599  
H529     H      0.165490000000     0.319630000000     0.767040000000     0.0484249  
H530     H      0.074210000000     0.295850000000     0.708460000000     0.0923495  
H531     H      0.111470000000     0.277990000000     0.723150000000     0.0958195  
H532     H      0.209760000000     0.425280000000     0.510880000000     0.0381019  
H533     H      0.276090000000     0.457450000000     0.547060000000     0.0409407  
H534     H      0.168680000000     0.324230000000     0.514880000000     0.0206365  
H535     H      0.217460000000     0.308650000000     0.551280000000     0.0534686  
H536     H      0.260030000000     0.451980000000     0.485630000000     0.0409565  
H537     H      0.301280000000     0.429810000000     0.523590000000     0.0376805  
H538     H      0.266760000000     0.343320000000     0.525650000000     0.0506646  
H539     H      0.166780000000     0.275690000000     0.973610000000     0.09325    
H540     H      0.225940000000     0.303330000000     0.969280000000     0.0891838  
H541     H      0.022640000000     0.253140000000     0.611290000000     0.040744   
H542     H      0.010300000000     0.217990000000     0.554980000000     0.0426551  
H543     H      0.022520000000     0.338580000000     0.608090000000     0.0165712  
H544     H      0.994530000000     0.339110000000     0.553350000000     0.0525405  
H545     H      0.072940000000     0.255200000000     0.594450000000     0.0426829  
H546     H      0.055300000000     0.272400000000     0.538900000000     0.0377277  
H547     H      0.043200000000     0.340410000000     0.534030000000     0.0456513  
H548     H      0.085180000000     0.413310000000     0.606940000000     0.0971624  
H549     H      0.104470000000     0.405320000000     0.568430000000     0.0987741  
H550     H      0.365020000000     0.429890000000     0.658170000000     0.0381544  
H551     H      0.400420000000     0.415550000000     0.704590000000     0.042974   
H552     H      0.360500000000     0.510430000000     0.677300000000     0.0220143  
H553     H      0.377770000000     0.526390000000     0.737000000000     0.0559051  
H554     H      0.321790000000     0.377080000000     0.676630000000     0.042518   
H555     H      0.352560000000     0.401750000000     0.731310000000     0.0388057  
H556     H      0.336400000000     0.467210000000     0.746870000000     0.0464629  
H557     H      0.296100000000     0.517000000000     0.683270000000     0.0949058  
H558     H      0.272690000000     0.475410000000     0.715060000000     0.091605   
H559     H      0.612140000000     0.032440000000     0.861390000000     0.0357571  
H560     H      0.577660000000     0.062560000000     0.824430000000     0.0410746  
H561     H      0.569100000000     0.946420000000     0.856730000000     0.0198953  
H562     H      0.498300000000     0.914260000000     0.824300000000     0.0513751  
H563     H      0.591290000000     0.062310000000     0.886670000000     0.0409915  
H564     H      0.527740000000     0.042050000000     0.849790000000     0.0399754  
H565     H      0.475040000000     0.939790000000     0.852020000000     0.0503098  
H566     H      0.537020000000     0.896950000000     0.903380000000     0.0974039  
H567     H      0.485080000000     0.896380000000     0.899240000000     0.094898   
H568     H      0.403310000000     0.945250000000     0.606230000000     0.0379156  
H569     H      0.451390000000     0.917110000000     0.581050000000     0.0405854  
H570     H      0.439370000000     0.030010000000     0.602710000000     0.0186736  
H571     H      0.512480000000     0.065890000000     0.574100000000     0.0533053  
H572     H      0.420710000000     0.918250000000     0.637420000000     0.0381383  
H573     H      0.496080000000     0.948650000000     0.611000000000     0.0394885  
H574     H      0.537140000000     0.046870000000     0.605510000000     0.0478088  
H575     H      0.464080000000     0.075250000000     0.654940000000     0.0917343  
H576     H      0.520170000000     0.091890000000     0.644440000000     0.0952851  
H577     H      0.712750000000     0.153800000000     0.508080000000     0.0373814  
H578     H      0.635780000000     0.112430000000     0.530800000000     0.0420006  
H579     H      0.731970000000     0.097200000000     0.482100000000     0.0169273  
H580     H      0.670740000000     0.016190000000     0.988090000000     0.0480392  
H581     H      0.714750000000     0.160590000000     0.552510000000     0.0409658  
H582     H      0.651800000000     0.083050000000     0.560600000000     0.0382652  
H583     H      0.675810000000     0.019780000000     0.532640000000     0.0532752  
H584     H      0.783190000000     0.071790000000     0.492420000000     0.0816469  
H585     H      0.766440000000     0.050150000000     0.529310000000     0.105381   
H586     H      0.292930000000     0.897620000000     0.782260000000     0.0388876  
H587     H      0.237760000000     0.817210000000     0.800110000000     0.0416815  
H588     H      0.260030000000     0.948120000000     0.780270000000     0.0200124  
H589     H      0.182240000000     0.909410000000     0.801600000000     0.052091   
H590     H      0.282610000000     0.856470000000     0.749470000000     0.0411178  
H591     H      0.200760000000     0.809990000000     0.765610000000     0.0418611  
H592     H      0.162330000000     0.868600000000     0.767880000000     0.0494127  
H593     H      0.247050000000     0.972310000000     0.724900000000     0.0905793  
H594     H      0.189110000000     0.933770000000     0.730290000000     0.0962695  
H595     H      0.114530000000     0.758430000000     0.514090000000     0.0368261  
H596     H      0.116300000000     0.801610000000     0.562450000000     0.0434471  
H597     H      0.194350000000     0.761150000000     0.504400000000     0.0223424  
H598     H      0.237640000000     0.795670000000     0.552090000000     0.0532884  
H599     H      0.111510000000     0.808610000000     0.500750000000     0.0343233  
H600     H      0.160530000000     0.855590000000     0.545460000000     0.0403285  
H601     H      0.249230000000     0.852890000000     0.541880000000     0.0534905  
H602     H      0.245790000000     0.806580000000     0.960510000000     0.106142   
H603     H      0.267380000000     0.851280000000     0.984020000000     0.0804619  
H604     H      0.351310000000     0.871790000000     0.899470000000     0.0374948  
H605     H      0.388060000000     0.857220000000     0.946230000000     0.0399915  
H606     H      0.301770000000     0.941530000000     0.944920000000     0.0213679  
H607     H      0.379230000000     0.973160000000     0.437830000000     0.050637   
H608     H      0.309300000000     0.820800000000     0.920480000000     0.0383007  
H609     H      0.344590000000     0.851470000000     0.974560000000     0.0456833  
H610     H      0.371160000000     0.967540000000     0.481630000000     0.0503973  
H611     H      0.264930000000     0.905030000000     0.989380000000     0.0922869  
H612     H      0.273180000000     0.862960000000     0.983940000000     0.0837039  
H613     H      0.835140000000     0.741030000000     0.975890000000     0.0378041  
H614     H      0.917290000000     0.770920000000     0.987490000000     0.0426081  
H615     H      0.791760000000     0.654120000000     0.979160000000     0.0231245  
H616     H      0.841210000000     0.620380000000     0.991740000000     0.0528233  
H617     H      0.869490000000     0.769830000000     0.940000000000     0.0421587  
H618     H      0.920940000000     0.738660000000     0.952700000000     0.0394426  
H619     H      0.874660000000     0.647890000000     0.955250000000     0.0471492  
H620     H      0.757710000000     0.610000000000     0.927390000000     0.0927564  
H621     H      0.801490000000     0.596450000000     0.926640000000     0.0952659  
H622     H      0.797630000000     0.660450000000     0.705610000000     0.0405808  
H623     H      0.847530000000     0.628390000000     0.690040000000     0.0423173  
H624     H      0.842390000000     0.749370000000     0.705510000000     0.0201668  
H625     H      0.922220000000     0.778790000000     0.688490000000     0.0534215  
H626     H      0.803650000000     0.628870000000     0.739490000000     0.043074   
H627     H      0.884850000000     0.658710000000     0.724230000000     0.0400078  
H628     H      0.931080000000     0.749320000000     0.722920000000     0.0461688  
H629     H      0.859130000000     0.796850000000     0.753090000000     0.0968398  
H630     H      0.907890000000     0.792850000000     0.762280000000     0.0954432  
H631     H      0.614100000000     0.545200000000     0.816200000000     0.0522515  
H632     H      0.685190000000     0.574820000000     0.835150000000     0.0429095  
H633     H      0.664670000000     0.685690000000     0.795950000000     0.0223238  
H634     H      0.704530000000     0.712320000000     0.846140000000     0.0568671  
H635     H      0.593160000000     0.565940000000     0.848740000000     0.102784   
H636     H      0.664230000000     0.585080000000     0.873050000000     0.0264831  
H637     H      0.660290000000     0.665990000000     0.870010000000     0.0445546  
H638     H      0.601370000000     0.689310000000     0.807780000000     0.0970859  
H639     H      0.582140000000     0.647250000000     0.838350000000     0.0931155  
H640     H      0.991890000000     0.703470000000     0.894570000000     0.0380242  
H641     H      0.962490000000     0.681670000000     0.838290000000     0.0428431  
H642     H      0.990530000000     0.777310000000     0.906530000000     0.0193767  
H643     H      0.978340000000     0.817180000000     0.858100000000     0.0537766  
H644     H      0.036530000000     0.705550000000     0.869140000000     0.0435385  
H645     H      0.011690000000     0.731680000000     0.821360000000     0.0375862  
H646     H      0.023810000000     0.814700000000     0.836470000000     0.0458946  
H647     H      0.059420000000     0.845860000000     0.924880000000     0.0957708  
H648     H      0.068580000000     0.868750000000     0.884390000000     0.0956643  
N1       N      0.722770000000     0.972940000000     0.312960000000    -0.18227    
N2       N      0.763050000000     0.058630000000     0.280500000000    -0.169138   
N3       N      0.781340000000     0.958160000000     0.288590000000    -0.197445   
N4       N      0.933770000000     0.312950000000     0.341680000000    -0.183722   
N5       N      0.987060000000     0.400590000000     0.311350000000    -0.166242   
N6       N      0.001210000000     0.301940000000     0.345810000000    -0.197044   
N7       N      0.128710000000     0.659540000000     0.247520000000    -0.183111   
N8       N      0.157010000000     0.724560000000     0.195000000000    -0.167702   
N9       N      0.202710000000     0.660040000000     0.243960000000    -0.198085   
N10      N      0.581580000000     0.664800000000     0.460630000000    -0.183601   
N11      N      0.622770000000     0.746180000000     0.420210000000    -0.167678   
N12      N      0.526490000000     0.687820000000     0.480190000000    -0.196988   
N13      N      0.299800000000     0.058540000000     0.080670000000    -0.182848   
N14      N      0.266590000000     0.967680000000     0.106990000000    -0.168339   
N15      N      0.220320000000     0.035060000000     0.064200000000    -0.197237   
N16      N      0.404770000000     0.317160000000     0.018330000000    -0.183958   
N17      N      0.453220000000     0.412220000000     0.034810000000    -0.168535   
N18      N      0.331350000000     0.317690000000     0.022050000000    -0.198682   
N19      N      0.662270000000     0.814810000000     0.208530000000    -0.181771   
N20      N      0.660150000000     0.797950000000     0.277490000000    -0.167531   
N21      N      0.578430000000     0.762430000000     0.206430000000    -0.198606   
N22      N      0.681460000000     0.910150000000     0.952910000000    -0.183064   
N23      N      0.676390000000     0.894650000000     0.022820000000    -0.167147   
N24      N      0.758720000000     0.974850000000     0.958460000000    -0.197226   
N25      N      0.745620000000     0.795950000000     0.094510000000    -0.184105   
N26      N      0.802270000000     0.753700000000     0.088020000000    -0.166979   
N27      N      0.717520000000     0.744190000000     0.047220000000    -0.195589   
N28      N      0.557520000000     0.930270000000     0.194810000000    -0.183753   
N29      N      0.597910000000     0.910220000000     0.141160000000    -0.168159   
N30      N      0.485750000000     0.854410000000     0.186050000000    -0.198118   
N31      N      0.064460000000     0.571610000000     0.372260000000    -0.181703   
N32      N      0.062900000000     0.590240000000     0.440280000000    -0.167426   
N33      N      0.147280000000     0.626410000000     0.371450000000    -0.199073   
N34      N      0.059630000000     0.487750000000     0.116350000000    -0.183967   
N35      N      0.053820000000     0.489450000000     0.187620000000    -0.165694   
N36      N      0.000080000000     0.410590000000     0.133370000000    -0.196181   
N37      N      0.021560000000     0.609030000000     0.078580000000    -0.184747   
N38      N      0.965950000000     0.649290000000     0.085110000000    -0.167397   
N39      N      0.090070000000     0.686240000000     0.569050000000    -0.196489   
N40      N      0.350630000000     0.147810000000     0.455050000000    -0.18456    
N41      N      0.353250000000     0.150100000000     0.384450000000    -0.166163   
N42      N      0.398050000000     0.114620000000     0.440250000000    -0.195772   
N43      N      0.350100000000     0.224830000000     0.138920000000    -0.183554   
N44      N      0.344270000000     0.240370000000     0.206340000000    -0.168856   
N45      N      0.429570000000     0.289360000000     0.138300000000    -0.197897   
N46      N      0.432070000000     0.056470000000     0.267690000000    -0.184454   
N47      N      0.398720000000     0.118080000000     0.259030000000    -0.167407   
N48      N      0.507030000000     0.122860000000     0.285990000000    -0.197447   
N49      N      0.104240000000     0.462740000000     0.476890000000    -0.183825   
N50      N      0.128160000000     0.439430000000     0.416000000000    -0.167916   
N51      N      0.027140000000     0.391350000000     0.473400000000    -0.196806   
N52      N      0.263200000000     0.310100000000     0.374370000000    -0.184452   
N53      N      0.296550000000     0.266460000000     0.331810000000    -0.167456   
N54      N      0.195840000000     0.232030000000     0.387350000000    -0.197586   
N55      N      0.489680000000     0.514890000000     0.342000000000    -0.186536   
N56      N      0.482160000000     0.498730000000     0.410810000000    -0.168589   
N57      N      0.566200000000     0.554500000000     0.366780000000    -0.236313   
N58      N      0.560650000000     0.590260000000     0.091080000000    -0.183092   
N59      N      0.566100000000     0.594570000000     0.160760000000    -0.16555    
N60      N      0.640580000000     0.633470000000     0.105090000000    -0.192283   
N61      N      0.830290000000     0.165900000000     0.465670000000    -0.183323   
N62      N      0.798050000000     0.143760000000     0.401420000000    -0.167405   
N63      N      0.815930000000     0.084580000000     0.473570000000    -0.215716   
N64      N      0.891970000000     0.220700000000     0.220600000000    -0.183914   
N65      N      0.866530000000     0.197820000000     0.153840000000    -0.167516   
N66      N      0.929350000000     0.172290000000     0.220090000000    -0.198448   
N67      N      0.143200000000     0.376410000000     0.228840000000    -0.184      
N68      N      0.168610000000     0.375010000000     0.295040000000    -0.166607   
N69      N      0.090090000000     0.291310000000     0.229310000000    -0.198899   
N70      N      0.221210000000     0.376490000000     0.984990000000    -0.183297   
N71      N      0.244360000000     0.382950000000     0.052300000000    -0.168388   
N72      N      0.198460000000     0.293330000000     0.985640000000    -0.198716   
N73      N      0.073520000000     0.321250000000     0.096550000000    -0.183851   
N74      N      0.996990000000     0.275410000000     0.054840000000    -0.169011   
N75      N      0.076400000000     0.396290000000     0.084000000000    -0.19688    
N76      N      0.313990000000     0.437710000000     0.182830000000    -0.184188   
N77      N      0.393900000000     0.473600000000     0.221400000000    -0.168718   
N78      N      0.302430000000     0.501550000000     0.203720000000    -0.19763    
N79      N      0.553380000000     0.987080000000     0.389140000000    -0.183066   
N80      N      0.529700000000     0.988760000000     0.322340000000    -0.167289   
N81      N      0.514600000000     0.900710000000     0.387420000000    -0.199427   
N82      N      0.454560000000     0.993580000000     0.138840000000    -0.184395   
N83      N      0.488580000000     0.991850000000     0.075760000000    -0.166879   
N84      N      0.486660000000     0.078800000000     0.135860000000    -0.198653   
N85      N      0.738280000000     0.115250000000     0.033340000000    -0.184028   
N86      N      0.647300000000     0.058140000000     0.011800000000    -0.167419   
N87      N      0.759510000000     0.060260000000     0.006460000000    -0.21913    
N88      N      0.250430000000     0.898470000000     0.243630000000    -0.185023   
N89      N      0.203380000000     0.857560000000     0.302020000000    -0.168317   
N90      N      0.220890000000     0.953040000000     0.241960000000    -0.198705   
N91      N      0.174980000000     0.810510000000     0.991590000000    -0.185462   
N92      N      0.183640000000     0.810150000000     0.061700000000    -0.16639    
N93      N      0.252390000000     0.820140000000     0.984480000000    -0.219486   
N94      N      0.302980000000     0.881780000000     0.426120000000    -0.185457   
N95      N      0.389260000000     0.920800000000     0.459180000000    -0.164752   
N96      N      0.288580000000     0.894090000000     0.484210000000    -0.213599   
N97      N      0.830110000000     0.694090000000     0.437940000000    -0.186015   
N98      N      0.880870000000     0.695780000000     0.492480000000    -0.169389   
N99      N      0.783040000000     0.607800000000     0.440950000000    -0.198003   
N100     N      0.840760000000     0.704400000000     0.243830000000    -0.184137   
N101     N      0.886330000000     0.703650000000     0.186280000000    -0.169326   
N102     N      0.885090000000     0.791300000000     0.244000000000    -0.198102   
N103     N      0.623780000000     0.613690000000     0.306860000000    -0.177729   
N104     N      0.700350000000     0.645150000000     0.343160000000    -0.167791   
N105     N      0.610790000000     0.675550000000     0.327650000000    -0.195426   
N106     N      0.044960000000     0.772270000000     0.384250000000    -0.183647   
N107     N      0.966280000000     0.748240000000     0.345960000000    -0.168462   
N108     N      0.045300000000     0.845120000000     0.401600000000    -0.197816   
N109     N      0.722770000000     0.972940000000     0.812960000000    -0.182256   
N110     N      0.763050000000     0.058630000000     0.780500000000    -0.1692     
N111     N      0.781340000000     0.958160000000     0.788590000000    -0.197446   
N112     N      0.933770000000     0.312950000000     0.841680000000    -0.183692   
N113     N      0.987060000000     0.400590000000     0.811350000000    -0.166246   
N114     N      0.001210000000     0.301940000000     0.845810000000    -0.197042   
N115     N      0.128710000000     0.659540000000     0.747520000000    -0.183115   
N116     N      0.157010000000     0.724570000000     0.695000000000    -0.16776    
N117     N      0.202710000000     0.660050000000     0.743960000000    -0.198049   
N118     N      0.581580000000     0.664800000000     0.960630000000    -0.183595   
N119     N      0.622770000000     0.746180000000     0.920210000000    -0.167691   
N120     N      0.526490000000     0.687820000000     0.980190000000    -0.197007   
N121     N      0.299800000000     0.058540000000     0.580670000000    -0.182848   
N122     N      0.266590000000     0.967680000000     0.606990000000    -0.168361   
N123     N      0.220320000000     0.035060000000     0.564200000000    -0.197237   
N124     N      0.404770000000     0.317160000000     0.518330000000    -0.18395    
N125     N      0.453220000000     0.412220000000     0.534810000000    -0.168589   
N126     N      0.331350000000     0.317690000000     0.522050000000    -0.198616   
N127     N      0.662270000000     0.814800000000     0.708530000000    -0.181707   
N128     N      0.660150000000     0.797950000000     0.777500000000    -0.167561   
N129     N      0.578430000000     0.762430000000     0.706420000000    -0.198657   
N130     N      0.681460000000     0.910150000000     0.452910000000    -0.183089   
N131     N      0.676390000000     0.894650000000     0.522820000000    -0.16715    
N132     N      0.758720000000     0.974850000000     0.458460000000    -0.197242   
N133     N      0.745620000000     0.795940000000     0.594510000000    -0.184067   
N134     N      0.802260000000     0.753690000000     0.588020000000    -0.166996   
N135     N      0.717520000000     0.744190000000     0.547220000000    -0.195659   
N136     N      0.557520000000     0.930270000000     0.694810000000    -0.183734   
N137     N      0.597910000000     0.910220000000     0.641160000000    -0.168122   
N138     N      0.485750000000     0.854410000000     0.686050000000    -0.198161   
N139     N      0.064460000000     0.571610000000     0.872260000000    -0.181736   
N140     N      0.062900000000     0.590240000000     0.940280000000    -0.167434   
N141     N      0.147270000000     0.626410000000     0.871450000000    -0.199071   
N142     N      0.059630000000     0.487750000000     0.616350000000    -0.18396    
N143     N      0.053820000000     0.489450000000     0.687620000000    -0.165684   
N144     N      0.000080000000     0.410590000000     0.633370000000    -0.19618    
N145     N      0.021560000000     0.609020000000     0.578580000000    -0.184781   
N146     N      0.965950000000     0.649290000000     0.585110000000    -0.167366   
N147     N      0.090070000000     0.686240000000     0.069050000000    -0.196546   
N148     N      0.350630000000     0.147810000000     0.955050000000    -0.184564   
N149     N      0.353250000000     0.150100000000     0.884460000000    -0.166074   
N150     N      0.398050000000     0.114620000000     0.940250000000    -0.195779   
N151     N      0.350100000000     0.224830000000     0.638930000000    -0.183477   
N152     N      0.344270000000     0.240370000000     0.706340000000    -0.168856   
N153     N      0.429570000000     0.289360000000     0.638290000000    -0.197913   
N154     N      0.432070000000     0.056470000000     0.767690000000    -0.184449   
N155     N      0.398720000000     0.118080000000     0.759030000000    -0.167415   
N156     N      0.507030000000     0.122860000000     0.785990000000    -0.197448   
N157     N      0.104240000000     0.462740000000     0.976890000000    -0.183781   
N158     N      0.128160000000     0.439430000000     0.916000000000    -0.167943   
N159     N      0.027140000000     0.391350000000     0.973400000000    -0.196848   
N160     N      0.263200000000     0.310110000000     0.874370000000    -0.184508   
N161     N      0.296550000000     0.266460000000     0.831810000000    -0.167453   
N162     N      0.195840000000     0.232030000000     0.887350000000    -0.19759    
N163     N      0.489680000000     0.514890000000     0.842000000000    -0.186618   
N164     N      0.482160000000     0.498730000000     0.910810000000    -0.16861    
N165     N      0.566200000000     0.554500000000     0.866780000000    -0.236261   
N166     N      0.560650000000     0.590260000000     0.591080000000    -0.183097   
N167     N      0.566100000000     0.594570000000     0.660760000000    -0.165481   
N168     N      0.640590000000     0.633470000000     0.605090000000    -0.192335   
N169     N      0.830290000000     0.165900000000     0.965670000000    -0.183254   
N170     N      0.798050000000     0.143760000000     0.901420000000    -0.167379   
N171     N      0.815930000000     0.084580000000     0.973570000000    -0.2157     
N172     N      0.891970000000     0.220700000000     0.720600000000    -0.183916   
N173     N      0.866530000000     0.197820000000     0.653840000000    -0.167542   
N174     N      0.929350000000     0.172290000000     0.720090000000    -0.198448   
N175     N      0.143200000000     0.376420000000     0.728840000000    -0.183942   
N176     N      0.168610000000     0.375010000000     0.795040000000    -0.16661    
N177     N      0.090090000000     0.291310000000     0.729310000000    -0.198892   
N178     N      0.221210000000     0.376490000000     0.484990000000    -0.183239   
N179     N      0.244360000000     0.382950000000     0.552300000000    -0.168429   
N180     N      0.198460000000     0.293330000000     0.485640000000    -0.198694   
N181     N      0.073520000000     0.321250000000     0.596550000000    -0.183849   
N182     N      0.996990000000     0.275410000000     0.554840000000    -0.169002   
N183     N      0.076400000000     0.396290000000     0.584000000000    -0.196881   
N184     N      0.313990000000     0.437710000000     0.682830000000    -0.184206   
N185     N      0.393900000000     0.473610000000     0.721400000000    -0.168788   
N186     N      0.302430000000     0.501560000000     0.703720000000    -0.19763    
N187     N      0.553380000000     0.987090000000     0.889150000000    -0.183155   
N188     N      0.529700000000     0.988760000000     0.822340000000    -0.167264   
N189     N      0.514600000000     0.900700000000     0.887410000000    -0.199403   
N190     N      0.454560000000     0.993580000000     0.638840000000    -0.184397   
N191     N      0.488580000000     0.991850000000     0.575760000000    -0.166893   
N192     N      0.486660000000     0.078800000000     0.635860000000    -0.198605   
N193     N      0.738280000000     0.115250000000     0.533340000000    -0.184065   
N194     N      0.647300000000     0.058140000000     0.511800000000    -0.167437   
N195     N      0.759510000000     0.060260000000     0.506460000000    -0.219163   
N196     N      0.250430000000     0.898470000000     0.743630000000    -0.185      
N197     N      0.203380000000     0.857570000000     0.802020000000    -0.168335   
N198     N      0.220890000000     0.953040000000     0.741960000000    -0.198697   
N199     N      0.174980000000     0.810510000000     0.491590000000    -0.185433   
N200     N      0.183640000000     0.810150000000     0.561700000000    -0.166408   
N201     N      0.252390000000     0.820140000000     0.484480000000    -0.219454   
N202     N      0.302980000000     0.881770000000     0.926120000000    -0.185469   
N203     N      0.389260000000     0.920800000000     0.959180000000    -0.164714   
N204     N      0.288580000000     0.894090000000     0.984210000000    -0.213601   
N205     N      0.830110000000     0.694090000000     0.937940000000    -0.186027   
N206     N      0.880870000000     0.695780000000     0.992480000000    -0.169406   
N207     N      0.783040000000     0.607800000000     0.940950000000    -0.198041   
N208     N      0.840760000000     0.704400000000     0.743830000000    -0.184124   
N209     N      0.886330000000     0.703650000000     0.686280000000    -0.169339   
N210     N      0.885090000000     0.791300000000     0.744000000000    -0.198049   
N211     N      0.623780000000     0.613690000000     0.806860000000    -0.177701   
N212     N      0.700350000000     0.645150000000     0.843160000000    -0.167849   
N213     N      0.610790000000     0.675550000000     0.827650000000    -0.195425   
N214     N      0.044950000000     0.772270000000     0.884250000000    -0.183599   
N215     N      0.966280000000     0.748240000000     0.845960000000    -0.168465   
N216     N      0.045300000000     0.845120000000     0.901600000000    -0.19782    
Ni1      Ni     0.827750000000     0.659090000000     0.340080000000     0.999186   
Ni2      Ni     0.839120000000     0.736020000000     0.341850000000     1.00664    
Ni3      Ni     0.176330000000     0.792650000000     0.391930000000     0.988704   
Ni4      Ni     0.180020000000     0.865570000000     0.400890000000     1.01963    
Ni5      Ni     0.518810000000     0.952600000000     0.986780000000     0.98147    
Ni6      Ni     0.520870000000     0.024790000000     0.977970000000     1.00797    
Ni7      Ni     0.188950000000     0.341770000000     0.144950000000     0.997552   
Ni8      Ni     0.198100000000     0.416960000000     0.135820000000     1.00458    
Ni9      Ni     0.869700000000     0.160350000000     0.057370000000     1.01922    
Ni10     Ni     0.858500000000     0.225800000000     0.055660000000     0.997314   
Ni11     Ni     0.527530000000     0.519980000000     0.246920000000     1.02204    
Ni12     Ni     0.513350000000     0.583160000000     0.254170000000     1.00834    
Ni13     Ni     0.228540000000     0.412100000000     0.387040000000     0.996049   
Ni14     Ni     0.160420000000     0.338770000000     0.393300000000     0.998909   
Ni15     Ni     0.386190000000     0.225540000000     0.298270000000     1.00278    
Ni16     Ni     0.310710000000     0.161310000000     0.291180000000     1.0014     
Ni17     Ni     0.101550000000     0.565920000000     0.031260000000     0.993437   
Ni18     Ni     0.023960000000     0.507040000000     0.023170000000     0.997636   
Ni19     Ni     0.705380000000     0.889050000000     0.121360000000     0.999406   
Ni20     Ni     0.637050000000     0.818080000000     0.108950000000     0.987392   
Ni21     Ni     0.916090000000     0.739570000000     0.088270000000     0.999777   
Ni22     Ni     0.851860000000     0.662550000000     0.090270000000     1.01144    
Ni23     Ni     0.526470000000     0.028980000000     0.226550000000     1.00125    
Ni24     Ni     0.459410000000     0.955250000000     0.234470000000     0.993845   
Ni25     Ni     0.313890000000     0.180610000000     0.043410000000     1.00355    
Ni26     Ni     0.389020000000     0.192770000000     0.050810000000     0.997405   
Ni27     Ni     0.486070000000     0.544010000000     0.005420000000     1.00747    
Ni28     Ni     0.552730000000     0.537530000000     0.998030000000     1.00555    
Ni29     Ni     0.179020000000     0.849090000000     0.156840000000     1.00179    
Ni30     Ni     0.248940000000     0.848410000000     0.150950000000     1.00226    
Ni31     Ni     0.024380000000     0.530650000000     0.276030000000     1.00393    
Ni32     Ni     0.093650000000     0.529450000000     0.284020000000     0.977129   
Ni33     Ni     0.819340000000     0.196140000000     0.307320000000     0.997151   
Ni34     Ni     0.875510000000     0.173980000000     0.316720000000     0.994183   
Ni35     Ni     0.634400000000     0.851640000000     0.361440000000     0.994844   
Ni36     Ni     0.709240000000     0.862130000000     0.367240000000     0.995604   
Ni37     Ni     0.827750000000     0.659090000000     0.840080000000     0.99923    
Ni38     Ni     0.839120000000     0.736020000000     0.841850000000     1.00664    
Ni39     Ni     0.176330000000     0.792650000000     0.891930000000     0.988455   
Ni40     Ni     0.180020000000     0.865560000000     0.900890000000     1.01966    
Ni41     Ni     0.518810000000     0.952600000000     0.486780000000     0.981545   
Ni42     Ni     0.520870000000     0.024790000000     0.477970000000     1.00785    
Ni43     Ni     0.188950000000     0.341770000000     0.644950000000     0.997585   
Ni44     Ni     0.198100000000     0.416950000000     0.635820000000     1.00444    
Ni45     Ni     0.869700000000     0.160350000000     0.557370000000     1.01904    
Ni46     Ni     0.858500000000     0.225800000000     0.555660000000     0.997445   
Ni47     Ni     0.527540000000     0.519980000000     0.746920000000     1.02196    
Ni48     Ni     0.513350000000     0.583150000000     0.754170000000     1.00851    
Ni49     Ni     0.228540000000     0.412100000000     0.887040000000     0.996058   
Ni50     Ni     0.160420000000     0.338770000000     0.893300000000     0.998848   
Ni51     Ni     0.386190000000     0.225540000000     0.798270000000     1.00277    
Ni52     Ni     0.310710000000     0.161310000000     0.791180000000     1.00139    
Ni53     Ni     0.101550000000     0.565910000000     0.531260000000     0.993425   
Ni54     Ni     0.023960000000     0.507040000000     0.523170000000     0.997643   
Ni55     Ni     0.705380000000     0.889040000000     0.621360000000     0.999288   
Ni56     Ni     0.637050000000     0.818080000000     0.608950000000     0.987347   
Ni57     Ni     0.916090000000     0.739560000000     0.588270000000     0.999894   
Ni58     Ni     0.851860000000     0.662550000000     0.590270000000     1.01108    
Ni59     Ni     0.526470000000     0.028980000000     0.726550000000     1.00107    
Ni60     Ni     0.459410000000     0.955250000000     0.734470000000     0.993675   
Ni61     Ni     0.313890000000     0.180610000000     0.543410000000     1.00339    
Ni62     Ni     0.389020000000     0.192770000000     0.550810000000     0.997426   
Ni63     Ni     0.486070000000     0.544010000000     0.505420000000     1.00735    
Ni64     Ni     0.552730000000     0.537530000000     0.498030000000     1.00566    
Ni65     Ni     0.179020000000     0.849090000000     0.656840000000     1.00178    
Ni66     Ni     0.248940000000     0.848410000000     0.650950000000     1.00212    
Ni67     Ni     0.024380000000     0.530650000000     0.776030000000     1.00403    
Ni68     Ni     0.093650000000     0.529440000000     0.784010000000     0.977171   
Ni69     Ni     0.819340000000     0.196140000000     0.807320000000     0.997504   
Ni70     Ni     0.875520000000     0.173980000000     0.816720000000     0.99418    
Ni71     Ni     0.634400000000     0.851640000000     0.861440000000     0.99466    
Ni72     Ni     0.709240000000     0.862130000000     0.867240000000     0.995727   
O1       O      0.829470000000     0.664230000000     0.292640000000    -0.453155   
O2       O      0.826410000000     0.659570000000     0.387610000000    -0.458237   
O3       O      0.763440000000     0.636510000000     0.339790000000    -0.454841   
O4       O      0.893100000000     0.686260000000     0.340890000000    -0.451517   
O5       O      0.903550000000     0.758030000000     0.343580000000    -0.454097   
O6       O      0.773520000000     0.708230000000     0.340660000000    -0.448747   
O7       O      0.836730000000     0.731290000000     0.388900000000    -0.460421   
O8       O      0.841550000000     0.736520000000     0.294560000000    -0.461229   
O9       O      0.169300000000     0.783140000000     0.438850000000    -0.456187   
O10      O      0.186470000000     0.808100000000     0.345970000000    -0.453327   
O11      O      0.241270000000     0.823470000000     0.398840000000    -0.451966   
O12      O      0.110820000000     0.766710000000     0.386170000000    -0.445493   
O13      O      0.116060000000     0.835490000000     0.393640000000    -0.467084   
O14      O      0.243530000000     0.890700000000     0.408760000000    -0.46246    
O15      O      0.190110000000     0.876420000000     0.354010000000    -0.452854   
O16      O      0.170240000000     0.850230000000     0.447140000000    -0.455735   
O17      O      0.534680000000     0.953970000000     0.441080000000    -0.454125   
O18      O      0.502110000000     0.955690000000     0.032080000000    -0.445113   
O19      O      0.455210000000     0.921290000000     0.474520000000    -0.447108   
O20      O      0.583060000000     0.988930000000     0.998070000000    -0.44361    
O21      O      0.583390000000     0.055870000000     0.991130000000    -0.455231   
O22      O      0.457280000000     0.988840000000     0.466400000000    -0.450938   
O23      O      0.504660000000     0.023410000000     0.023580000000    -0.451626   
O24      O      0.538340000000     0.022110000000     0.432830000000    -0.449957   
O25      O      0.162640000000     0.341660000000     0.187340000000    -0.45385    
O26      O      0.214830000000     0.346360000000     0.101890000000    -0.451663   
O27      O      0.249130000000     0.372510000000     0.164250000000    -0.452487   
O28      O      0.130200000000     0.316470000000     0.124720000000    -0.458241   
O29      O      0.138320000000     0.386330000000     0.116280000000    -0.459791   
O30      O      0.256710000000     0.442350000000     0.155840000000    -0.46262    
O31      O      0.224420000000     0.417160000000     0.093550000000    -0.451733   
O32      O      0.172160000000     0.412320000000     0.178940000000    -0.456592   
O33      O      0.868980000000     0.160490000000     0.010400000000    -0.462129   
O34      O      0.868850000000     0.163920000000     0.104790000000    -0.454801   
O35      O      0.804720000000     0.122020000000     0.054650000000    -0.459217   
O36      O      0.933770000000     0.202880000000     0.057740000000    -0.459903   
O37      O      0.924040000000     0.264410000000     0.054050000000    -0.450642   
O38      O      0.794390000000     0.183060000000     0.056000000000    -0.455779   
O39      O      0.860410000000     0.226400000000     0.103280000000    -0.449651   
O40      O      0.854470000000     0.218810000000     0.008440000000    -0.452116   
O41      O      0.550610000000     0.544440000000     0.204010000000    -0.459398   
O42      O      0.505800000000     0.500490000000     0.290450000000    -0.466471   
O43      O      0.466250000000     0.484380000000     0.229460000000    -0.450756   
O44      O      0.585720000000     0.558820000000     0.266830000000    -0.456038   
O45      O      0.573580000000     0.618610000000     0.271770000000    -0.460261   
O46      O      0.453710000000     0.543570000000     0.237440000000    -0.46139    
O47      O      0.492130000000     0.559230000000     0.298000000000    -0.455016   
O48      O      0.535830000000     0.602490000000     0.209850000000    -0.451353   
O49      O      0.212930000000     0.410070000000     0.340980000000    -0.449231   
O50      O      0.239220000000     0.410000000000     0.433460000000    -0.453183   
O51      O      0.259850000000     0.377970000000     0.377840000000    -0.449785   
O52      O      0.193040000000     0.440810000000     0.397480000000    -0.452787   
O53      O      0.129050000000     0.372390000000     0.402820000000    -0.44978    
O54      O      0.196020000000     0.310140000000     0.383950000000    -0.46288    
O55      O      0.175920000000     0.341120000000     0.439420000000    -0.454312   
O56      O      0.150010000000     0.340780000000     0.346600000000    -0.448536   
O57      O      0.385880000000     0.201960000000     0.341670000000    -0.452095   
O58      O      0.382170000000     0.244970000000     0.254450000000    -0.454384   
O59      O      0.358810000000     0.260310000000     0.315400000000    -0.447324   
O60      O      0.407900000000     0.186450000000     0.280540000000    -0.4514     
O61      O      0.337420000000     0.127090000000     0.272600000000    -0.450612   
O62      O      0.288760000000     0.199040000000     0.310260000000    -0.455666   
O63      O      0.310690000000     0.186610000000     0.248210000000    -0.449501   
O64      O      0.315820000000     0.141160000000     0.334880000000    -0.449028   
O65      O      0.098790000000     0.590860000000     0.488860000000    -0.449022   
O66      O      0.099270000000     0.536850000000     0.073150000000    -0.448086   
O67      O      0.118620000000     0.525970000000     0.508930000000    -0.454136   
O68      O      0.079210000000     0.602310000000     0.053020000000    -0.453434   
O69      O      0.006950000000     0.546150000000     0.046520000000    -0.456238   
O70      O      0.046410000000     0.471420000000     0.500550000000    -0.455605   
O71      O      0.026890000000     0.481410000000     0.065170000000    -0.451702   
O72      O      0.025540000000     0.537200000000     0.481970000000    -0.449161   
O73      O      0.706650000000     0.906310000000     0.075510000000    -0.445973   
O74      O      0.699770000000     0.866770000000     0.166200000000    -0.44846    
O75      O      0.738950000000     0.858670000000     0.110310000000    -0.455304   
O76      O      0.667300000000     0.914970000000     0.132070000000    -0.451832   
O77      O      0.603480000000     0.848480000000     0.120880000000    -0.451779   
O78      O      0.675570000000     0.792230000000     0.098100000000    -0.448685   
O79      O      0.635560000000     0.800930000000     0.154680000000    -0.451531   
O80      O      0.642150000000     0.840380000000     0.064230000000    -0.447142   
O81      O      0.914840000000     0.738950000000     0.135980000000    -0.450482   
O82      O      0.912340000000     0.734910000000     0.040920000000    -0.452711   
O83      O      0.873960000000     0.762150000000     0.087690000000    -0.454103   
O84      O      0.954440000000     0.712010000000     0.088230000000    -0.450309   
O85      O      0.894230000000     0.640240000000     0.089800000000    -0.454542   
O86      O      0.813590000000     0.690590000000     0.090520000000    -0.448979   
O87      O      0.852510000000     0.662840000000     0.043010000000    -0.458001   
O88      O      0.855920000000     0.666330000000     0.137350000000    -0.458571   
O89      O      0.543220000000     0.024580000000     0.271440000000    -0.45089    
O90      O      0.504460000000     0.028820000000     0.182400000000    -0.453857   
O91      O      0.493490000000     0.057250000000     0.243030000000    -0.464176   
O92      O      0.555790000000     0.995920000000     0.210760000000    -0.455747   
O93      O      0.493150000000     0.927170000000     0.217630000000    -0.454767   
O94      O      0.430250000000     0.989020000000     0.250670000000    -0.445702   
O95      O      0.442270000000     0.959580000000     0.189990000000    -0.454261   
O96      O      0.481220000000     0.954830000000     0.278310000000    -0.450357   
O97      O      0.315830000000     0.161360000000     0.999010000000    -0.456014   
O98      O      0.316030000000     0.199750000000     0.088260000000    -0.459316   
O99      O      0.341910000000     0.244540000000     0.029150000000    -0.455348   
O100     O      0.291480000000     0.118240000000     0.058640000000    -0.458351   
O101     O      0.361430000000     0.129510000000     0.065980000000    -0.452703   
O102     O      0.411730000000     0.254980000000     0.035440000000    -0.457807   
O103     O      0.386940000000     0.212890000000     0.095190000000    -0.45328    
O104     O      0.386080000000     0.172410000000     0.005770000000    -0.451556   
O105     O      0.508230000000     0.567890000000     0.048930000000    -0.455011   
O106     O      0.469030000000     0.521080000000     0.461270000000    -0.456289   
O107     O      0.455980000000     0.481300000000     0.022130000000    -0.451231   
O108     O      0.520000000000     0.605390000000     0.487640000000    -0.460368   
O109     O      0.582100000000     0.599540000000     0.480060000000    -0.454081   
O110     O      0.518770000000     0.475990000000     0.016000000000    -0.454041   
O111     O      0.530430000000     0.513250000000     0.454770000000    -0.458022   
O112     O      0.570670000000     0.562100000000     0.041800000000    -0.457063   
O113     O      0.200780000000     0.877380000000     0.199560000000    -0.455689   
O114     O      0.162670000000     0.822230000000     0.113390000000    -0.449755   
O115     O      0.153580000000     0.788400000000     0.176510000000    -0.451452   
O116     O      0.208490000000     0.908880000000     0.136340000000    -0.456716   
O117     O      0.274870000000     0.910060000000     0.132340000000    -0.447606   
O118     O      0.218250000000     0.786860000000     0.169780000000    -0.449644   
O119     O      0.228870000000     0.823460000000     0.107490000000    -0.452966   
O120     O      0.264560000000     0.873610000000     0.194640000000    -0.455629   
O121     O      0.029350000000     0.550850000000     0.321260000000    -0.450788   
O122     O      0.023620000000     0.509700000000     0.231400000000    -0.448111   
O123     O      0.992260000000     0.467620000000     0.290950000000    -0.453592   
O124     O      0.061040000000     0.594040000000     0.261660000000    -0.453579   
O125     O      0.125610000000     0.592710000000     0.268220000000    -0.452981   
O126     O      0.056580000000     0.465800000000     0.299080000000    -0.441864   
O127     O      0.088160000000     0.508060000000     0.239020000000    -0.446819   
O128     O      0.095140000000     0.551690000000     0.328400000000    -0.4489     
O129     O      0.843050000000     0.212780000000     0.263000000000    -0.451466   
O130     O      0.799690000000     0.178740000000     0.352170000000    -0.45144    
O131     O      0.863540000000     0.257270000000     0.322110000000    -0.453378   
O132     O      0.778560000000     0.132820000000     0.293420000000    -0.44783    
O133     O      0.833050000000     0.114100000000     0.299500000000    -0.456029   
O134     O      0.915260000000     0.236310000000     0.332810000000    -0.453206   
O135     O      0.848980000000     0.153430000000     0.360120000000    -0.447151   
O136     O      0.896930000000     0.194330000000     0.272500000000    -0.456622   
O137     O      0.643550000000     0.882620000000     0.403340000000    -0.449698   
O138     O      0.629730000000     0.820110000000     0.320150000000    -0.445662   
O139     O      0.612280000000     0.794690000000     0.385440000000    -0.452351   
O140     O      0.661780000000     0.910280000000     0.338250000000    -0.449001   
O141     O      0.731500000000     0.919850000000     0.344160000000    -0.457398   
O142     O      0.681890000000     0.803380000000     0.390030000000    -0.449384   
O143     O      0.700390000000     0.831720000000     0.325160000000    -0.450957   
O144     O      0.713370000000     0.892200000000     0.408970000000    -0.451252   
O145     O      0.829470000000     0.664230000000     0.792640000000    -0.453158   
O146     O      0.826410000000     0.659570000000     0.887610000000    -0.458242   
O147     O      0.763440000000     0.636520000000     0.839790000000    -0.454975   
O148     O      0.893100000000     0.686260000000     0.840890000000    -0.45159    
O149     O      0.903550000000     0.758030000000     0.843580000000    -0.45401    
O150     O      0.773520000000     0.708230000000     0.840660000000    -0.448798   
O151     O      0.836730000000     0.731290000000     0.888900000000    -0.460423   
O152     O      0.841550000000     0.736520000000     0.794560000000    -0.461224   
O153     O      0.169300000000     0.783140000000     0.938850000000    -0.456165   
O154     O      0.186470000000     0.808100000000     0.845970000000    -0.453336   
O155     O      0.241280000000     0.823470000000     0.898840000000    -0.451887   
O156     O      0.110820000000     0.766710000000     0.886170000000    -0.445434   
O157     O      0.116060000000     0.835490000000     0.893640000000    -0.46704    
O158     O      0.243530000000     0.890690000000     0.908760000000    -0.46258    
O159     O      0.190110000000     0.876410000000     0.854010000000    -0.452955   
O160     O      0.170240000000     0.850230000000     0.947140000000    -0.455742   
O161     O      0.534680000000     0.953970000000     0.941080000000    -0.454187   
O162     O      0.502110000000     0.955690000000     0.532080000000    -0.445139   
O163     O      0.455210000000     0.921280000000     0.974520000000    -0.446978   
O164     O      0.583060000000     0.988930000000     0.498070000000    -0.443621   
O165     O      0.583390000000     0.055870000000     0.491130000000    -0.455219   
O166     O      0.457280000000     0.988840000000     0.966400000000    -0.450914   
O167     O      0.504660000000     0.023410000000     0.523580000000    -0.451625   
O168     O      0.538340000000     0.022110000000     0.932840000000    -0.450023   
O169     O      0.162640000000     0.341660000000     0.687340000000    -0.453798   
O170     O      0.214830000000     0.346360000000     0.601890000000    -0.451719   
O171     O      0.249120000000     0.372510000000     0.664250000000    -0.452567   
O172     O      0.130200000000     0.316470000000     0.624720000000    -0.458248   
O173     O      0.138320000000     0.386330000000     0.616280000000    -0.459757   
O174     O      0.256710000000     0.442350000000     0.655840000000    -0.462594   
O175     O      0.224420000000     0.417150000000     0.593550000000    -0.451838   
O176     O      0.172160000000     0.412330000000     0.678940000000    -0.456396   
O177     O      0.868980000000     0.160490000000     0.510400000000    -0.462077   
O178     O      0.868840000000     0.163920000000     0.604790000000    -0.454859   
O179     O      0.804720000000     0.122020000000     0.554650000000    -0.459081   
O180     O      0.933780000000     0.202880000000     0.557740000000    -0.459729   
O181     O      0.924030000000     0.264410000000     0.554050000000    -0.45049    
O182     O      0.794390000000     0.183060000000     0.556000000000    -0.455793   
O183     O      0.860410000000     0.226400000000     0.603280000000    -0.449696   
O184     O      0.854470000000     0.218810000000     0.508440000000    -0.452106   
O185     O      0.550610000000     0.544430000000     0.704010000000    -0.459357   
O186     O      0.505800000000     0.500490000000     0.790450000000    -0.46636    
O187     O      0.466250000000     0.484390000000     0.729470000000    -0.45091    
O188     O      0.585730000000     0.558820000000     0.766830000000    -0.455997   
O189     O      0.573580000000     0.618610000000     0.771770000000    -0.460246   
O190     O      0.453710000000     0.543560000000     0.737440000000    -0.461571   
O191     O      0.492130000000     0.559230000000     0.798000000000    -0.454977   
O192     O      0.535830000000     0.602490000000     0.709860000000    -0.451248   
O193     O      0.212930000000     0.410070000000     0.840980000000    -0.449228   
O194     O      0.239220000000     0.409990000000     0.933460000000    -0.453262   
O195     O      0.259850000000     0.377970000000     0.877840000000    -0.449795   
O196     O      0.193040000000     0.440810000000     0.897480000000    -0.452762   
O197     O      0.129050000000     0.372400000000     0.902820000000    -0.449897   
O198     O      0.196020000000     0.310140000000     0.883950000000    -0.462913   
O199     O      0.175920000000     0.341120000000     0.939420000000    -0.454346   
O200     O      0.150010000000     0.340780000000     0.846600000000    -0.448527   
O201     O      0.385880000000     0.201960000000     0.841670000000    -0.452067   
O202     O      0.382170000000     0.244970000000     0.754450000000    -0.454383   
O203     O      0.358810000000     0.260310000000     0.815400000000    -0.447323   
O204     O      0.407900000000     0.186450000000     0.780540000000    -0.4514     
O205     O      0.337420000000     0.127090000000     0.772600000000    -0.450612   
O206     O      0.288760000000     0.199040000000     0.810260000000    -0.455665   
O207     O      0.310690000000     0.186610000000     0.748210000000    -0.449499   
O208     O      0.315820000000     0.141160000000     0.834880000000    -0.449001   
O209     O      0.098790000000     0.590860000000     0.988860000000    -0.449095   
O210     O      0.099270000000     0.536850000000     0.573150000000    -0.448171   
O211     O      0.118620000000     0.525970000000     0.008930000000    -0.454009   
O212     O      0.079210000000     0.602310000000     0.553020000000    -0.453368   
O213     O      0.006950000000     0.546150000000     0.546520000000    -0.456236   
O214     O      0.046410000000     0.471420000000     0.000550000000    -0.455636   
O215     O      0.026890000000     0.481410000000     0.565170000000    -0.451717   
O216     O      0.025540000000     0.537190000000     0.981960000000    -0.449128   
O217     O      0.706650000000     0.906310000000     0.575510000000    -0.445948   
O218     O      0.699770000000     0.866770000000     0.666200000000    -0.448407   
O219     O      0.738950000000     0.858670000000     0.610310000000    -0.455337   
O220     O      0.667300000000     0.914970000000     0.632080000000    -0.451657   
O221     O      0.603480000000     0.848470000000     0.620880000000    -0.451719   
O222     O      0.675570000000     0.792230000000     0.598100000000    -0.448674   
O223     O      0.635550000000     0.800920000000     0.654680000000    -0.451376   
O224     O      0.642150000000     0.840380000000     0.564230000000    -0.447075   
O225     O      0.914850000000     0.738950000000     0.635980000000    -0.45043    
O226     O      0.912340000000     0.734910000000     0.540920000000    -0.452795   
O227     O      0.873960000000     0.762150000000     0.587690000000    -0.454038   
O228     O      0.954440000000     0.712020000000     0.588230000000    -0.450316   
O229     O      0.894230000000     0.640240000000     0.589800000000    -0.454457   
O230     O      0.813590000000     0.690590000000     0.590520000000    -0.448828   
O231     O      0.852510000000     0.662840000000     0.543000000000    -0.457877   
O232     O      0.855920000000     0.666330000000     0.637350000000    -0.458503   
O233     O      0.543220000000     0.024580000000     0.771440000000    -0.450831   
O234     O      0.504460000000     0.028820000000     0.682390000000    -0.453778   
O235     O      0.493490000000     0.057250000000     0.743030000000    -0.464156   
O236     O      0.555790000000     0.995920000000     0.710760000000    -0.455712   
O237     O      0.493150000000     0.927160000000     0.717630000000    -0.454645   
O238     O      0.430250000000     0.989020000000     0.750670000000    -0.44568    
O239     O      0.442270000000     0.959580000000     0.689990000000    -0.454258   
O240     O      0.481220000000     0.954820000000     0.778310000000    -0.45025    
O241     O      0.315830000000     0.161360000000     0.499000000000    -0.455933   
O242     O      0.316030000000     0.199750000000     0.588260000000    -0.459246   
O243     O      0.341910000000     0.244540000000     0.529160000000    -0.455358   
O244     O      0.291480000000     0.118240000000     0.558640000000    -0.458343   
O245     O      0.361430000000     0.129510000000     0.565980000000    -0.452709   
O246     O      0.411730000000     0.254980000000     0.535440000000    -0.457809   
O247     O      0.386940000000     0.212890000000     0.595190000000    -0.453241   
O248     O      0.386080000000     0.172410000000     0.505770000000    -0.451614   
O249     O      0.508230000000     0.567890000000     0.548930000000    -0.455001   
O250     O      0.469030000000     0.521080000000     0.961270000000    -0.456346   
O251     O      0.455980000000     0.481300000000     0.522130000000    -0.451272   
O252     O      0.520000000000     0.605390000000     0.987640000000    -0.460478   
O253     O      0.582100000000     0.599540000000     0.980060000000    -0.453986   
O254     O      0.518760000000     0.475990000000     0.516000000000    -0.454198   
O255     O      0.530430000000     0.513260000000     0.954770000000    -0.458104   
O256     O      0.570670000000     0.562100000000     0.541800000000    -0.457091   
O257     O      0.200780000000     0.877380000000     0.699560000000    -0.455638   
O258     O      0.162670000000     0.822220000000     0.613390000000    -0.449795   
O259     O      0.153580000000     0.788400000000     0.676510000000    -0.451459   
O260     O      0.208490000000     0.908880000000     0.636340000000    -0.456764   
O261     O      0.274870000000     0.910070000000     0.632340000000    -0.447627   
O262     O      0.218250000000     0.786860000000     0.669780000000    -0.449639   
O263     O      0.228870000000     0.823460000000     0.607490000000    -0.452972   
O264     O      0.264570000000     0.873610000000     0.694640000000    -0.455469   
O265     O      0.029360000000     0.550850000000     0.821260000000    -0.450918   
O266     O      0.023620000000     0.509700000000     0.731400000000    -0.448146   
O267     O      0.992260000000     0.467620000000     0.790950000000    -0.45361    
O268     O      0.061040000000     0.594040000000     0.761660000000    -0.453587   
O269     O      0.125610000000     0.592710000000     0.768220000000    -0.452955   
O270     O      0.056580000000     0.465800000000     0.799080000000    -0.44191    
O271     O      0.088160000000     0.508060000000     0.739020000000    -0.446966   
O272     O      0.095140000000     0.551690000000     0.828400000000    -0.448818   
O273     O      0.843050000000     0.212780000000     0.763010000000    -0.451565   
O274     O      0.799690000000     0.178740000000     0.852170000000    -0.451448   
O275     O      0.863530000000     0.257270000000     0.822100000000    -0.453289   
O276     O      0.778560000000     0.132820000000     0.793420000000    -0.447933   
O277     O      0.833040000000     0.114100000000     0.799500000000    -0.456155   
O278     O      0.915260000000     0.236310000000     0.832810000000    -0.453172   
O279     O      0.848990000000     0.153430000000     0.860120000000    -0.447036   
O280     O      0.896930000000     0.194330000000     0.772500000000    -0.456646   
O281     O      0.643550000000     0.882620000000     0.903340000000    -0.449653   
O282     O      0.629730000000     0.820100000000     0.820150000000    -0.445754   
O283     O      0.612280000000     0.794680000000     0.885440000000    -0.452341   
O284     O      0.661780000000     0.910280000000     0.838250000000    -0.448981   
O285     O      0.731500000000     0.919850000000     0.844160000000    -0.457418   
O286     O      0.681890000000     0.803380000000     0.890030000000    -0.449425   
O287     O      0.700390000000     0.831720000000     0.825160000000    -0.451104   
O288     O      0.713370000000     0.892190000000     0.908970000000    -0.451236   


