data_structure

_audit_creation_method RASPA-1.0
_audit_creation_date 2023-6-5
_audit_author_name 'Poobodin Mano'

_cell_length_a    34.2783
_cell_length_b    34.1756
_cell_length_c    40.0768
_cell_angle_alpha 89.9809
_cell_angle_beta  90.0192
_cell_angle_gamma 119.98
_cell_volume      40667.4

_symmetry_cell_setting          triclinic
_symmetry_space_group_name_Hall 'P 1'
_symmetry_space_group_name_H-M  'P 1'
_symmetry_Int_Tables_number     1

_symmetry_equiv_pos_as_xyz 'x,y,z'

loop_
_atom_site_label
_atom_site_type_symbol
_atom_site_fract_x
_atom_site_fract_y
_atom_site_fract_z
_atom_site_charge
C1       C      0.838960000000     0.662930000000     0.264090000000     0.432906   
C2       C      0.839020000000     0.670660000000     0.390920000000     0.431541   
C3       C      0.753620000000     0.629270000000     0.327200000000     0.431036   
C4       C      0.925000000000     0.704650000000     0.325440000000     0.42989    
C5       C      0.157270000000     0.813840000000     0.429770000000     0.434093   
C6       C      0.213990000000     0.871900000000     0.312830000000     0.434183   
C7       C      0.267510000000     0.889640000000     0.392050000000     0.429531   
C8       C      0.105170000000     0.797570000000     0.351120000000     0.428631   
C9       C      0.546490000000     0.020060000000     0.413990000000     0.431591   
C10      C      0.484080000000     0.020180000000     0.029340000000     0.431915   
C11      C      0.435340000000     0.980300000000     0.449290000000     0.42863    
C12      C      0.596070000000     0.059940000000     0.994830000000     0.428444   
C13      C      0.148860000000     0.339990000000     0.231980000000     0.425969   
C14      C      0.198270000000     0.342340000000     0.111270000000     0.426236   
C15      C      0.253600000000     0.374220000000     0.193470000000     0.42958    
C16      C      0.093080000000     0.308750000000     0.149730000000     0.428615   
C17      C      0.867740000000     0.214720000000     0.023700000000     0.428469   
C18      C      0.810490000000     0.160240000000     0.141900000000     0.427064   
C19      C      0.757620000000     0.143760000000     0.060490000000     0.428335   
C20      C      0.917930000000     0.228900000000     0.106510000000     0.428761   
C21      C      0.535860000000     0.528340000000     0.186750000000     0.426062   
C22      C      0.491200000000     0.483890000000     0.308620000000     0.425409   
C23      C      0.431620000000     0.461040000000     0.228350000000     0.429541   
C24      C      0.595330000000     0.550910000000     0.266490000000     0.4301     
C25      C      0.146440000000     0.342360000000     0.365130000000     0.428061   
C26      C      0.210730000000     0.338210000000     0.479400000000     0.428579   
C27      C      0.223310000000     0.307000000000     0.394970000000     0.428991   
C28      C      0.134210000000     0.372890000000     0.449620000000     0.429809   
C29      C      0.352250000000     0.146280000000     0.393420000000     0.429354   
C30      C      0.349490000000     0.210940000000     0.279100000000     0.429462   
C31      C      0.314640000000     0.221080000000     0.362710000000     0.429058   
C32      C      0.386760000000     0.136400000000     0.310110000000     0.429041   
C33      C      0.003480000000     0.521820000000     0.418480000000     0.428701   
C34      C      0.999730000000     0.488830000000     0.043070000000     0.427936   
C35      C      0.041220000000     0.460070000000     0.469010000000     0.429296   
C36      C      0.962680000000     0.550860000000     0.991610000000     0.430855   
C37      C      0.670670000000     0.861370000000     0.098930000000     0.426833   
C38      C      0.673620000000     0.817440000000     0.220430000000     0.426872   
C39      C      0.707320000000     0.792830000000     0.139630000000     0.429013   
C40      C      0.637680000000     0.886200000000     0.179620000000     0.429424   
C41      C      0.862870000000     0.660610000000     0.136370000000     0.433289   
C42      C      0.811280000000     0.670450000000     0.019140000000     0.432544   
C43      C      0.793540000000     0.701360000000     0.102950000000     0.429375   
C44      C      0.880410000000     0.629560000000     0.054000000000     0.430066   
C45      C      0.526870000000     0.019020000000     0.283900000000     0.429933   
C46      C      0.490060000000     0.022030000000     0.161060000000     0.430417   
C47      C      0.463810000000     0.059570000000     0.238250000000     0.430037   
C48      C      0.552080000000     0.981410000000     0.205800000000     0.429543   
C49      C      0.349480000000     0.152410000000     0.025680000000     0.427693   
C50      C      0.351910000000     0.196620000000     0.147730000000     0.427504   
C51      C      0.388190000000     0.256620000000     0.067980000000     0.42924    
C52      C      0.313010000000     0.091820000000     0.104910000000     0.430237   
C53      C      0.548550000000     0.544990000000     0.055040000000     0.428215   
C54      C      0.484070000000     0.473350000000     0.441530000000     0.427505   
C55      C      0.475230000000     0.432680000000     0.027380000000     0.429689   
C56      C      0.557430000000     0.586290000000     0.469840000000     0.430027   
C57      C      0.183900000000     0.839470000000     0.186660000000     0.433577   
C58      C      0.157620000000     0.811790000000     0.061990000000     0.433463   
C59      C      0.121720000000     0.740210000000     0.135530000000     0.430211   
C60      C      0.218540000000     0.909410000000     0.112970000000     0.429663   
C61      C      0.995370000000     0.470600000000     0.174540000000     0.429782   
C62      C      0.004330000000     0.541410000000     0.288420000000     0.430241   
C63      C      0.037800000000     0.583560000000     0.204030000000     0.42802    
C64      C      0.961630000000     0.428370000000     0.259900000000     0.427756   
C65      C      0.797170000000     0.143460000000     0.273510000000     0.429312   
C66      C      0.853350000000     0.203770000000     0.390850000000     0.426369   
C67      C      0.869660000000     0.254140000000     0.307130000000     0.427865   
C68      C      0.782970000000     0.095090000000     0.356110000000     0.429982   
C69      C      0.671620000000     0.873750000000     0.467020000000     0.429105   
C70      C      0.669670000000     0.806260000000     0.352830000000     0.428963   
C71      C      0.639190000000     0.762420000000     0.437020000000     0.430055   
C72      C      0.701620000000     0.917530000000     0.382910000000     0.430191   
C73      C      0.786680000000     0.030310000000     0.379440000000    -0.00888234 
C74      C      0.712260000000     0.027680000000     0.375830000000    -0.0110332  
C75      C      0.767320000000     0.986020000000     0.360650000000    -0.00907473 
C76      C      0.691250000000     0.979890000000     0.360510000000    -0.0111556  
C77      C      0.966250000000     0.366010000000     0.288040000000    -0.0109172  
C78      C      0.894640000000     0.368970000000     0.289210000000    -0.0101073  
C79      C      0.939130000000     0.315100000000     0.280850000000    -0.0105812  
C80      C      0.867560000000     0.318700000000     0.281250000000    -0.0103492  
C81      C      0.034240000000     0.649470000000     0.181350000000    -0.0113302  
C82      C      0.107610000000     0.648740000000     0.182640000000    -0.0102739  
C83      C      0.047090000000     0.672020000000     0.146810000000    -0.0104295  
C84      C      0.117140000000     0.666900000000     0.147080000000    -0.009887   
C85      C      0.649240000000     0.700190000000     0.460010000000    -0.011262   
C86      C      0.573580000000     0.695180000000     0.460850000000    -0.00923727 
C87      C      0.626900000000     0.651480000000     0.446350000000    -0.0108866  
C88      C      0.552740000000     0.649350000000     0.444060000000    -0.00894522 
C89      C      0.292900000000     0.977710000000     0.101320000000    -0.0113424  
C90      C      0.221430000000     0.981530000000     0.100590000000    -0.00973618 
C91      C      0.316480000000     0.022920000000     0.120440000000    -0.0106891  
C92      C      0.243600000000     0.023150000000     0.122610000000    -0.00912226 
C93      C      0.456290000000     0.322380000000     0.045420000000    -0.0101949  
C94      C      0.382190000000     0.321450000000     0.046340000000    -0.0109602  
C95      C      0.480270000000     0.371530000000     0.056330000000    -0.00945363 
C96      C      0.407410000000     0.371790000000     0.055650000000    -0.0102566  
C97      C      0.714310000000     0.830770000000     0.273580000000    -0.00994705 
C98      C      0.628280000000     0.785740000000     0.270960000000    -0.0115465  
C99      C      0.711930000000     0.802560000000     0.304010000000    -0.0101938  
C100     C      0.628460000000     0.761440000000     0.302990000000    -0.00836344 
C101     C      0.713390000000     0.918950000000     0.016540000000    -0.0080932  
C102     C      0.629920000000     0.876610000000     0.016450000000    -0.0102466  
C103     C      0.714820000000     0.894360000000     0.048030000000    -0.0115955  
C104     C      0.628770000000     0.848180000000     0.046370000000    -0.0100335  
C105     C      0.699670000000     0.721270000000     0.117460000000    -0.0109803  
C106     C      0.774520000000     0.793430000000     0.117120000000    -0.00986582 
C107     C      0.723760000000     0.695100000000     0.127320000000    -0.0107214  
C108     C      0.797170000000     0.767960000000     0.129940000000    -0.00952644 
C109     C      0.570750000000     0.887100000000     0.201280000000    -0.00967289 
C110     C      0.645720000000     0.958550000000     0.200420000000    -0.0108486  
C111     C      0.548840000000     0.911720000000     0.185530000000    -0.00978386 
C112     C      0.622880000000     0.984520000000     0.187290000000    -0.0107381  
C113     C      0.047560000000     0.582850000000     0.338560000000    -0.00765388 
C114     C      0.963990000000     0.542660000000     0.338830000000    -0.0107685  
C115     C      0.048040000000     0.553650000000     0.367330000000    -0.0111517  
C116     C      0.962150000000     0.509940000000     0.365720000000    -0.00937704 
C117     C      0.039670000000     0.501350000000     0.096630000000    -0.00967961 
C118     C      0.953960000000     0.458980000000     0.093930000000    -0.0112294  
C119     C      0.036600000000     0.469230000000     0.124510000000    -0.0107158  
C120     C      0.953000000000     0.430380000000     0.123670000000    -0.00827183 
C121     C      0.965960000000     0.624180000000     0.002720000000    -0.0100416  
C122     C      0.892020000000     0.552470000000     0.999880000000    -0.00984014 
C123     C      0.952710000000     0.635460000000     0.036460000000    -0.0111449  
C124     C      0.879940000000     0.560770000000     0.034680000000    -0.0100881  
C125     C      0.308490000000     0.125150000000     0.472700000000    -0.00966059 
C126     C      0.394580000000     0.166980000000     0.474980000000    -0.011426   
C127     C      0.310860000000     0.099570000000     0.442140000000    -0.0102276  
C128     C      0.394380000000     0.143000000000     0.442700000000    -0.00823353 
C129     C      0.308190000000     0.212610000000     0.228790000000    -0.0077671  
C130     C      0.391740000000     0.254160000000     0.229440000000    -0.0105552  
C131     C      0.307300000000     0.185070000000     0.198440000000    -0.011488   
C132     C      0.393210000000     0.225490000000     0.200590000000    -0.00979382 
C133     C      0.455320000000     0.137760000000     0.289380000000    -0.0102288  
C134     C      0.380430000000     0.065480000000     0.287910000000    -0.0111483  
C135     C      0.463760000000     0.129740000000     0.253350000000    -0.0101357  
C136     C      0.391440000000     0.056060000000     0.252700000000    -0.0101728  
C137     C      0.038350000000     0.387540000000     0.455620000000    -0.0113768  
C138     C      0.112070000000     0.461470000000     0.455460000000    -0.0100849  
C139     C      0.062590000000     0.364640000000     0.471890000000    -0.0105127  
C140     C      0.133940000000     0.438930000000     0.474290000000    -0.00876226 
C141     C      0.246600000000     0.217890000000     0.386330000000    -0.00950855 
C142     C      0.319790000000     0.291400000000     0.385540000000    -0.0111365  
C143     C      0.223010000000     0.240680000000     0.370260000000    -0.00931621 
C144     C      0.294830000000     0.315330000000     0.372260000000    -0.0110163  
C145     C      0.482880000000     0.429310000000     0.391750000000    -0.008713   
C146     C      0.438040000000     0.468070000000     0.392290000000    -0.0104103  
C147     C      0.506210000000     0.453210000000     0.359230000000    -0.011662   
C148     C      0.463380000000     0.496490000000     0.361820000000    -0.00984295 
C149     C      0.592910000000     0.547990000000     0.104620000000    -0.0103055  
C150     C      0.548820000000     0.587500000000     0.105400000000    -0.00820509 
C151     C      0.565440000000     0.517490000000     0.133670000000    -0.0100454  
C152     C      0.522780000000     0.560930000000     0.136310000000    -0.0116998  
C153     C      0.843310000000     0.234420000000     0.443510000000    -0.00980389 
C154     C      0.886500000000     0.191320000000     0.440910000000    -0.011702   
C155     C      0.871590000000     0.259630000000     0.474010000000    -0.0102961  
C156     C      0.910110000000     0.214540000000     0.473470000000    -0.00831449 
C157     C      0.797120000000     0.100710000000     0.223400000000    -0.00807126 
C158     C      0.752480000000     0.139630000000     0.223910000000    -0.0101793  
C159     C      0.821970000000     0.126010000000     0.191800000000    -0.0116796  
C160     C      0.779050000000     0.169430000000     0.194410000000    -0.0096756  
C161     C      0.121490000000     0.298880000000     0.284890000000    -0.00993691 
C162     C      0.164310000000     0.385320000000     0.282700000000    -0.0115962  
C163     C      0.098290000000     0.301760000000     0.316620000000    -0.010191   
C164     C      0.142990000000     0.385400000000     0.316280000000    -0.00877498 
C165     C      0.211710000000     0.296590000000     0.029900000000    -0.00832776 
C166     C      0.255240000000     0.380280000000     0.028850000000    -0.0103245  
C167     C      0.185710000000     0.296890000000     0.060830000000    -0.011675   
C168     C      0.228290000000     0.383150000000     0.058320000000    -0.0101522  
C169     C      0.981790000000     0.296860000000     0.132560000000    -0.0104841  
C170     C      0.978040000000     0.221670000000     0.134440000000    -0.00943564 
C171     C      0.032640000000     0.319850000000     0.125220000000    -0.0110556  
C172     C      0.027160000000     0.243610000000     0.124380000000    -0.0101563  
C173     C      0.366080000000     0.463830000000     0.206140000000    -0.00965773 
C174     C      0.366650000000     0.390480000000     0.206110000000    -0.0109025  
C175     C      0.318420000000     0.439650000000     0.219550000000    -0.00938805 
C176     C      0.316500000000     0.365420000000     0.216150000000    -0.0107316  
C177     C      0.588570000000     0.061230000000     0.363600000000    -0.00736168 
C178     C      0.545240000000     0.977370000000     0.364100000000    -0.0104117  
C179     C      0.560150000000     0.062910000000     0.334930000000    -0.0109663  
C180     C      0.514020000000     0.976770000000     0.336450000000    -0.0097863  
C181     C      0.477850000000     0.061470000000     0.077620000000    -0.0101766  
C182     C      0.437650000000     0.977610000000     0.077940000000    -0.00730971 
C183     C      0.505350000000     0.063620000000     0.108290000000    -0.00933696 
C184     C      0.461180000000     0.977180000000     0.110150000000    -0.011384   
C185     C      0.664150000000     0.056920000000     0.012100000000    -0.0108544  
C186     C      0.665150000000     0.130910000000     0.010050000000    -0.0103791  
C187     C      0.689910000000     0.070970000000     0.045270000000    -0.01055    
C188     C      0.687770000000     0.143350000000     0.044230000000    -0.0103946  
C189     C      0.206040000000     0.906610000000     0.261680000000    -0.0108113  
C190     C      0.251910000000     0.868840000000     0.261600000000    -0.00659162 
C191     C      0.171030000000     0.870080000000     0.238660000000    -0.00976335 
C192     C      0.218710000000     0.832050000000     0.238280000000    -0.0103408  
C193     C      0.133740000000     0.832930000000     0.010810000000    -0.0107193  
C194     C      0.176540000000     0.789500000000     0.008980000000    -0.00907753 
C195     C      0.110760000000     0.810100000000     0.978210000000    -0.00771141 
C196     C      0.149910000000     0.765410000000     0.977760000000    -0.00983779 
C197     C      0.339990000000     0.893780000000     0.404340000000    -0.00987904 
C198     C      0.334780000000     0.964500000000     0.403600000000    -0.0109395  
C199     C      0.366060000000     0.908580000000     0.436930000000    -0.0100882  
C200     C      0.365930000000     0.982100000000     0.434210000000    -0.0108068  
C201     C      0.778250000000     0.629410000000     0.467010000000    -0.0109376  
C202     C      0.819890000000     0.713550000000     0.467430000000    -0.00783544 
C203     C      0.814030000000     0.629120000000     0.444210000000    -0.00996921 
C204     C      0.854860000000     0.714640000000     0.443170000000    -0.0100145  
C205     C      0.820340000000     0.618030000000     0.212220000000    -0.009768   
C206     C      0.863870000000     0.703660000000     0.210650000000    -0.00958473 
C207     C      0.854380000000     0.617440000000     0.187930000000    -0.00773443 
C208     C      0.898640000000     0.701510000000     0.187900000000    -0.0108695  
C209     C      0.663350000000     0.549710000000     0.285190000000    -0.010048   
C210     C      0.662010000000     0.622960000000     0.284910000000    -0.0112306  
C211     C      0.680440000000     0.559240000000     0.321020000000    -0.0094804  
C212     C      0.683770000000     0.633670000000     0.319760000000    -0.0102903  
C213     C      0.037100000000     0.722710000000     0.343380000000    -0.0116944  
C214     C      0.033670000000     0.795400000000     0.341120000000    -0.00954014 
C215     C      0.995400000000     0.700420000000     0.320470000000    -0.0101167  
C216     C      0.997500000000     0.773940000000     0.314660000000    -0.00923611 
C217     C      0.838970000000     0.662930000000     0.764090000000     0.432701   
C218     C      0.839020000000     0.670660000000     0.890920000000     0.431771   
C219     C      0.753620000000     0.629270000000     0.827200000000     0.431072   
C220     C      0.925000000000     0.704660000000     0.825440000000     0.429885   
C221     C      0.157270000000     0.813840000000     0.929770000000     0.434051   
C222     C      0.213990000000     0.871900000000     0.812820000000     0.434059   
C223     C      0.267500000000     0.889640000000     0.892050000000     0.429528   
C224     C      0.105170000000     0.797570000000     0.851120000000     0.428613   
C225     C      0.546480000000     0.020060000000     0.913980000000     0.431535   
C226     C      0.484070000000     0.020180000000     0.529340000000     0.431766   
C227     C      0.435340000000     0.980300000000     0.949290000000     0.428648   
C228     C      0.596070000000     0.059940000000     0.494830000000     0.428461   
C229     C      0.148860000000     0.339990000000     0.731980000000     0.425992   
C230     C      0.198270000000     0.342340000000     0.611270000000     0.426238   
C231     C      0.253600000000     0.374220000000     0.693470000000     0.42957    
C232     C      0.093080000000     0.308750000000     0.649730000000     0.428851   
C233     C      0.867730000000     0.214720000000     0.523690000000     0.428403   
C234     C      0.810490000000     0.160240000000     0.641900000000     0.427054   
C235     C      0.757620000000     0.143760000000     0.560490000000     0.428377   
C236     C      0.917920000000     0.228900000000     0.606510000000     0.428965   
C237     C      0.535860000000     0.528330000000     0.686750000000     0.426068   
C238     C      0.491200000000     0.483900000000     0.808620000000     0.425202   
C239     C      0.431620000000     0.461040000000     0.728350000000     0.429535   
C240     C      0.595330000000     0.550910000000     0.766490000000     0.430098   
C241     C      0.146440000000     0.342360000000     0.865130000000     0.428089   
C242     C      0.210730000000     0.338210000000     0.979400000000     0.428454   
C243     C      0.223310000000     0.307000000000     0.894970000000     0.428993   
C244     C      0.134210000000     0.372890000000     0.949620000000     0.429794   
C245     C      0.352250000000     0.146280000000     0.893420000000     0.429353   
C246     C      0.349490000000     0.210940000000     0.779100000000     0.429463   
C247     C      0.314650000000     0.221080000000     0.862710000000     0.429111   
C248     C      0.386760000000     0.136400000000     0.810110000000     0.429041   
C249     C      0.003480000000     0.521820000000     0.918480000000     0.428701   
C250     C      0.999730000000     0.488830000000     0.543080000000     0.427874   
C251     C      0.041220000000     0.460070000000     0.969010000000     0.429292   
C252     C      0.962680000000     0.550860000000     0.491610000000     0.430648   
C253     C      0.670670000000     0.861370000000     0.598930000000     0.426847   
C254     C      0.673620000000     0.817440000000     0.720430000000     0.426777   
C255     C      0.707320000000     0.792820000000     0.639630000000     0.428971   
C256     C      0.637680000000     0.886210000000     0.679620000000     0.429312   
C257     C      0.862870000000     0.660610000000     0.636370000000     0.433398   
C258     C      0.811280000000     0.670450000000     0.519140000000     0.432292   
C259     C      0.793550000000     0.701360000000     0.602950000000     0.42946    
C260     C      0.880400000000     0.629560000000     0.554000000000     0.43003    
C261     C      0.526870000000     0.019020000000     0.783900000000     0.430012   
C262     C      0.490060000000     0.022030000000     0.661060000000     0.430528   
C263     C      0.463810000000     0.059570000000     0.738250000000     0.430036   
C264     C      0.552080000000     0.981410000000     0.705800000000     0.42955    
C265     C      0.349480000000     0.152410000000     0.525680000000     0.427632   
C266     C      0.351910000000     0.196620000000     0.647730000000     0.427524   
C267     C      0.388190000000     0.256620000000     0.567980000000     0.429178   
C268     C      0.313010000000     0.091820000000     0.604910000000     0.430011   
C269     C      0.548550000000     0.544990000000     0.555040000000     0.428213   
C270     C      0.484070000000     0.473360000000     0.941530000000     0.42753    
C271     C      0.475230000000     0.432680000000     0.527390000000     0.42985    
C272     C      0.557430000000     0.586290000000     0.969840000000     0.43007    
C273     C      0.183900000000     0.839470000000     0.686660000000     0.433654   
C274     C      0.157620000000     0.811790000000     0.561990000000     0.433454   
C275     C      0.121720000000     0.740210000000     0.635540000000     0.430185   
C276     C      0.218540000000     0.909400000000     0.612970000000     0.430014   
C277     C      0.995380000000     0.470600000000     0.674540000000     0.42978    
C278     C      0.004330000000     0.541420000000     0.788420000000     0.430414   
C279     C      0.037800000000     0.583560000000     0.704030000000     0.428      
C280     C      0.961630000000     0.428370000000     0.759900000000     0.427825   
C281     C      0.797170000000     0.143460000000     0.773510000000     0.429514   
C282     C      0.853350000000     0.203770000000     0.890850000000     0.426374   
C283     C      0.869660000000     0.254140000000     0.807130000000     0.42787    
C284     C      0.782970000000     0.095090000000     0.856110000000     0.429987   
C285     C      0.671620000000     0.873750000000     0.967020000000     0.429135   
C286     C      0.669670000000     0.806260000000     0.852830000000     0.429054   
C287     C      0.639190000000     0.762420000000     0.937020000000     0.430126   
C288     C      0.701620000000     0.917530000000     0.882920000000     0.430225   
C289     C      0.786680000000     0.030310000000     0.879440000000    -0.00887836 
C290     C      0.712260000000     0.027680000000     0.875830000000    -0.0110308  
C291     C      0.767320000000     0.986020000000     0.860650000000    -0.0090902  
C292     C      0.691250000000     0.979890000000     0.860510000000    -0.0111624  
C293     C      0.966250000000     0.366010000000     0.788040000000    -0.0109154  
C294     C      0.894640000000     0.368980000000     0.789210000000    -0.0101186  
C295     C      0.939130000000     0.315100000000     0.780850000000    -0.0105812  
C296     C      0.867560000000     0.318700000000     0.781250000000    -0.0103416  
C297     C      0.034240000000     0.649470000000     0.681350000000    -0.011317   
C298     C      0.107610000000     0.648740000000     0.682630000000    -0.0102367  
C299     C      0.047090000000     0.672020000000     0.646810000000    -0.0103861  
C300     C      0.117140000000     0.666900000000     0.647080000000    -0.00994787 
C301     C      0.649240000000     0.700190000000     0.960010000000    -0.0111978  
C302     C      0.573580000000     0.695180000000     0.960850000000    -0.00928185 
C303     C      0.626910000000     0.651480000000     0.946350000000    -0.0109823  
C304     C      0.552740000000     0.649350000000     0.944060000000    -0.00889733 
C305     C      0.292900000000     0.977710000000     0.601320000000    -0.0112846  
C306     C      0.221430000000     0.981540000000     0.600580000000    -0.00985016 
C307     C      0.316480000000     0.022920000000     0.620440000000    -0.0107186  
C308     C      0.243600000000     0.023150000000     0.622610000000    -0.00908598 
C309     C      0.456290000000     0.322380000000     0.545420000000    -0.0101959  
C310     C      0.382190000000     0.321450000000     0.546340000000    -0.0109643  
C311     C      0.480270000000     0.371530000000     0.556330000000    -0.00944881 
C312     C      0.407410000000     0.371790000000     0.555650000000    -0.0102389  
C313     C      0.714310000000     0.830770000000     0.773590000000    -0.00996758 
C314     C      0.628280000000     0.785740000000     0.770960000000    -0.0115474  
C315     C      0.711930000000     0.802560000000     0.804010000000    -0.0102069  
C316     C      0.628460000000     0.761440000000     0.802990000000    -0.00834951 
C317     C      0.713390000000     0.918950000000     0.516540000000    -0.00811316 
C318     C      0.629920000000     0.876610000000     0.516450000000    -0.0102861  
C319     C      0.714820000000     0.894360000000     0.548030000000    -0.0115967  
C320     C      0.628770000000     0.848180000000     0.546370000000    -0.0100257  
C321     C      0.699670000000     0.721270000000     0.617460000000    -0.0109664  
C322     C      0.774520000000     0.793430000000     0.617120000000    -0.00984649 
C323     C      0.723760000000     0.695090000000     0.627320000000    -0.0107651  
C324     C      0.797170000000     0.767960000000     0.629940000000    -0.00954975 
C325     C      0.570750000000     0.887100000000     0.701280000000    -0.00970095 
C326     C      0.645720000000     0.958550000000     0.700420000000    -0.0109105  
C327     C      0.548840000000     0.911730000000     0.685530000000    -0.00975713 
C328     C      0.622880000000     0.984520000000     0.687290000000    -0.0106939  
C329     C      0.047560000000     0.582850000000     0.838560000000    -0.00763647 
C330     C      0.963990000000     0.542660000000     0.838830000000    -0.0107539  
C331     C      0.048040000000     0.553650000000     0.867330000000    -0.011155   
C332     C      0.962150000000     0.509940000000     0.865720000000    -0.00937948 
C333     C      0.039670000000     0.501350000000     0.596620000000    -0.0096197  
C334     C      0.953960000000     0.458980000000     0.593930000000    -0.0112012  
C335     C      0.036600000000     0.469230000000     0.624510000000    -0.0107456  
C336     C      0.953000000000     0.430370000000     0.623670000000    -0.00830147 
C337     C      0.965960000000     0.624170000000     0.502720000000    -0.0100544  
C338     C      0.892020000000     0.552470000000     0.499880000000    -0.0098016  
C339     C      0.952710000000     0.635460000000     0.536460000000    -0.0111805  
C340     C      0.879940000000     0.560770000000     0.534680000000    -0.0101452  
C341     C      0.308490000000     0.125150000000     0.972690000000    -0.00968168 
C342     C      0.394580000000     0.166980000000     0.974980000000    -0.0114236  
C343     C      0.310860000000     0.099570000000     0.942140000000    -0.0102168  
C344     C      0.394380000000     0.143000000000     0.942700000000    -0.00823432 
C345     C      0.308190000000     0.212610000000     0.728790000000    -0.00776569 
C346     C      0.391740000000     0.254160000000     0.729440000000    -0.0105426  
C347     C      0.307300000000     0.185070000000     0.698440000000    -0.011489   
C348     C      0.393210000000     0.225490000000     0.700600000000    -0.0098152  
C349     C      0.455320000000     0.137760000000     0.789380000000    -0.0102283  
C350     C      0.380440000000     0.065480000000     0.787910000000    -0.0111574  
C351     C      0.463760000000     0.129740000000     0.753350000000    -0.0101303  
C352     C      0.391440000000     0.056060000000     0.752710000000    -0.0101478  
C353     C      0.038350000000     0.387540000000     0.955620000000    -0.0113789  
C354     C      0.112070000000     0.461460000000     0.955460000000    -0.0100263  
C355     C      0.062590000000     0.364640000000     0.971890000000    -0.0105186  
C356     C      0.133950000000     0.438930000000     0.974290000000    -0.00886103 
C357     C      0.246600000000     0.217890000000     0.886330000000    -0.00951266 
C358     C      0.319790000000     0.291400000000     0.885550000000    -0.0111945  
C359     C      0.223010000000     0.240680000000     0.870260000000    -0.00931404 
C360     C      0.294830000000     0.315330000000     0.872260000000    -0.0109744  
C361     C      0.482880000000     0.429300000000     0.891750000000    -0.00877863 
C362     C      0.438040000000     0.468060000000     0.892290000000    -0.0103143  
C363     C      0.506210000000     0.453210000000     0.859230000000    -0.0116121  
C364     C      0.463380000000     0.496500000000     0.861820000000    -0.00999137 
C365     C      0.592910000000     0.547990000000     0.604620000000    -0.0102998  
C366     C      0.548820000000     0.587500000000     0.605400000000    -0.00817504 
C367     C      0.565440000000     0.517490000000     0.633670000000    -0.0100571  
C368     C      0.522780000000     0.560940000000     0.636310000000    -0.0117682  
C369     C      0.843310000000     0.234420000000     0.943510000000    -0.00980288 
C370     C      0.886500000000     0.191320000000     0.940910000000    -0.0116954  
C371     C      0.871590000000     0.259630000000     0.974010000000    -0.0102966  
C372     C      0.910110000000     0.214540000000     0.973470000000    -0.00833447 
C373     C      0.797120000000     0.100710000000     0.723400000000    -0.00808217 
C374     C      0.752480000000     0.139630000000     0.723910000000    -0.0101879  
C375     C      0.821970000000     0.126010000000     0.691790000000    -0.0116702  
C376     C      0.779050000000     0.169430000000     0.694410000000    -0.0096715  
C377     C      0.121490000000     0.298880000000     0.784890000000    -0.00991539 
C378     C      0.164310000000     0.385320000000     0.782700000000    -0.0116084  
C379     C      0.098290000000     0.301760000000     0.816620000000    -0.010196   
C380     C      0.142990000000     0.385400000000     0.816280000000    -0.00876744 
C381     C      0.211710000000     0.296590000000     0.529900000000    -0.00832628 
C382     C      0.255240000000     0.380280000000     0.528850000000    -0.0103244  
C383     C      0.185710000000     0.296890000000     0.560830000000    -0.0116758  
C384     C      0.228290000000     0.383150000000     0.558330000000    -0.0101508  
C385     C      0.981790000000     0.296860000000     0.632560000000    -0.0104532  
C386     C      0.978040000000     0.221670000000     0.634440000000    -0.00943572 
C387     C      0.032640000000     0.319860000000     0.625220000000    -0.0111375  
C388     C      0.027160000000     0.243610000000     0.624380000000    -0.0101498  
C389     C      0.366080000000     0.463830000000     0.706140000000    -0.00967244 
C390     C      0.366650000000     0.390470000000     0.706110000000    -0.0109937  
C391     C      0.318430000000     0.439650000000     0.719550000000    -0.00935276 
C392     C      0.316500000000     0.365420000000     0.716150000000    -0.0106821  
C393     C      0.588570000000     0.061230000000     0.863600000000    -0.00738018 
C394     C      0.545240000000     0.977370000000     0.864100000000    -0.0104575  
C395     C      0.560160000000     0.062910000000     0.834930000000    -0.0109144  
C396     C      0.514020000000     0.976780000000     0.836450000000    -0.0096879  
C397     C      0.477850000000     0.061470000000     0.577620000000    -0.0101777  
C398     C      0.437650000000     0.977620000000     0.577940000000    -0.0072442  
C399     C      0.505350000000     0.063620000000     0.608290000000    -0.00933265 
C400     C      0.461180000000     0.977180000000     0.610150000000    -0.011407   
C401     C      0.664150000000     0.056920000000     0.512100000000    -0.0109151  
C402     C      0.665150000000     0.130910000000     0.510050000000    -0.0104397  
C403     C      0.689910000000     0.070970000000     0.545270000000    -0.010533   
C404     C      0.687770000000     0.143350000000     0.544230000000    -0.0103764  
C405     C      0.206040000000     0.906610000000     0.761680000000    -0.0107844  
C406     C      0.251910000000     0.868840000000     0.761600000000    -0.00658389 
C407     C      0.171030000000     0.870080000000     0.738660000000    -0.00976405 
C408     C      0.218710000000     0.832050000000     0.738280000000    -0.0103373  
C409     C      0.133740000000     0.832930000000     0.510810000000    -0.0108225  
C410     C      0.176540000000     0.789490000000     0.508980000000    -0.00920257 
C411     C      0.110770000000     0.810100000000     0.478210000000    -0.00752911 
C412     C      0.149910000000     0.765410000000     0.477760000000    -0.00975458 
C413     C      0.339990000000     0.893780000000     0.904340000000    -0.00989124 
C414     C      0.334780000000     0.964500000000     0.903600000000    -0.0109578  
C415     C      0.366060000000     0.908580000000     0.936930000000    -0.0100755  
C416     C      0.365930000000     0.982100000000     0.934210000000    -0.0107995  
C417     C      0.778250000000     0.629410000000     0.967010000000    -0.0110085  
C418     C      0.819890000000     0.713550000000     0.967430000000    -0.00778608 
C419     C      0.814030000000     0.629130000000     0.944210000000    -0.00983363 
C420     C      0.854860000000     0.714650000000     0.943170000000    -0.0100841  
C421     C      0.820350000000     0.618040000000     0.712220000000    -0.00967967 
C422     C      0.863870000000     0.703660000000     0.710650000000    -0.00958326 
C423     C      0.854380000000     0.617440000000     0.687930000000    -0.00775715 
C424     C      0.898640000000     0.701510000000     0.687900000000    -0.0108958  
C425     C      0.663350000000     0.549710000000     0.785190000000    -0.0100488  
C426     C      0.662010000000     0.622960000000     0.784910000000    -0.0112317  
C427     C      0.680440000000     0.559240000000     0.821020000000    -0.00947808 
C428     C      0.683770000000     0.633670000000     0.819760000000    -0.0102863  
C429     C      0.037100000000     0.722710000000     0.843380000000    -0.0117692  
C430     C      0.033670000000     0.795400000000     0.841120000000    -0.00952876 
C431     C      0.995400000000     0.700430000000     0.820470000000    -0.00999865 
C432     C      0.997500000000     0.773940000000     0.814660000000    -0.00924813 
H1       H      0.705970000000     0.024010000000     0.403180000000     0.0404649  
H2       H      0.782470000000     0.022820000000     0.406640000000     0.0397759  
H3       H      0.786560000000     0.968840000000     0.367150000000     0.0426787  
H4       H      0.695180000000     0.045320000000     0.365320000000     0.0430045  
H5       H      0.656030000000     0.959200000000     0.369530000000     0.0436724  
H6       H      0.690160000000     0.983180000000     0.332970000000     0.0392212  
H7       H      0.823390000000     0.050820000000     0.374400000000     0.0426396  
H8       H      0.771740000000     0.993490000000     0.333440000000     0.0401599  
H9       H      0.895420000000     0.373030000000     0.316780000000     0.0383828  
H10      H      0.971880000000     0.370820000000     0.315420000000     0.0401424  
H11      H      0.956370000000     0.298580000000     0.292960000000     0.0433719  
H12      H      0.876900000000     0.385890000000     0.278620000000     0.0425128  
H13      H      0.833770000000     0.304440000000     0.292950000000     0.0427882  
H14      H      0.862550000000     0.314780000000     0.253770000000     0.0394411  
H15      H      0.999680000000     0.380330000000     0.275730000000     0.0435128  
H16      H      0.939330000000     0.310030000000     0.253450000000     0.0404972  
H17      H      0.124650000000     0.677660000000     0.200210000000     0.0409115  
H18      H      0.043640000000     0.676450000000     0.200340000000     0.0402274  
H19      H      0.033400000000     0.695250000000     0.143980000000     0.0449022  
H20      H      0.122590000000     0.626710000000     0.186090000000     0.0425844  
H21      H      0.154100000000     0.685400000000     0.142760000000     0.0427421  
H22      H      0.101750000000     0.637740000000     0.129580000000     0.0382355  
H23      H      0.997090000000     0.627120000000     0.182510000000     0.0443825  
H24      H      0.030720000000     0.645080000000     0.127630000000     0.039033   
H25      H      0.570310000000     0.689940000000     0.488330000000     0.0403122  
H26      H      0.651730000000     0.698680000000     0.487590000000     0.0403261  
H27      H      0.644390000000     0.634260000000     0.456880000000     0.0437151  
H28      H      0.554410000000     0.712220000000     0.453700000000     0.0427511  
H29      H      0.516370000000     0.629540000000     0.450450000000     0.0425038  
H30      H      0.555290000000     0.654570000000     0.416570000000     0.039473   
H31      H      0.683980000000     0.719870000000     0.449870000000     0.0434651  
H32      H      0.631440000000     0.653320000000     0.418810000000     0.0392039  
H33      H      0.225890000000     0.992630000000     0.074080000000     0.0402368  
H34      H      0.300440000000     0.985090000000     0.074320000000     0.0397357  
H35      H      0.352210000000     0.042600000000     0.112300000000     0.0434716  
H36      H      0.184710000000     0.962780000000     0.105880000000     0.0430397  
H37      H      0.226950000000     0.043540000000     0.118610000000     0.0425628  
H38      H      0.238170000000     0.012000000000     0.149120000000     0.0384532  
H39      H      0.307410000000     0.956560000000     0.109460000000     0.0432723  
H40      H      0.316130000000     0.015310000000     0.147450000000     0.0393137  
H41      H      0.376760000000     0.318580000000     0.018890000000     0.0406234  
H42      H      0.458090000000     0.321300000000     0.017750000000     0.0399491  
H43      H      0.515490000000     0.388560000000     0.046960000000     0.042302   
H44      H      0.348570000000     0.304990000000     0.058550000000     0.0433058  
H45      H      0.389540000000     0.388230000000     0.044450000000     0.0430538  
H46      H      0.406380000000     0.374580000000     0.083250000000     0.0393866  
H47      H      0.474740000000     0.306090000000     0.055800000000     0.0430989  
H48      H      0.481730000000     0.372530000000     0.084070000000     0.0382993  
H49      H      0.619600000000     0.812060000000     0.277630000000     0.0413041  
H50      H      0.719460000000     0.863920000000     0.282330000000     0.0429704  
H51      H      0.742320000000     0.822370000000     0.319730000000     0.0418618  
H52      H      0.600910000000     0.761050000000     0.254500000000     0.0427681  
H53      H      0.597620000000     0.752280000000     0.317780000000     0.0406504  
H54      H      0.627370000000     0.729480000000     0.295780000000     0.035832   
H55      H      0.744040000000     0.837370000000     0.258240000000     0.0400838  
H56      H      0.711980000000     0.771730000000     0.295140000000     0.0375827  
H57      H      0.629470000000     0.906990000000     0.025900000000     0.0375928  
H58      H      0.713940000000     0.950430000000     0.024410000000     0.0357287  
H59      H      0.742330000000     0.919050000000     0.064400000000     0.0426569  
H60      H      0.599320000000     0.856620000000     0.000970000000     0.0416991  
H61      H      0.599230000000     0.840900000000     0.062210000000     0.0402368  
H62      H      0.623920000000     0.815370000000     0.037100000000     0.0429845  
H63      H      0.744020000000     0.928980000000     0.001230000000     0.0406092  
H64      H      0.723940000000     0.868600000000     0.040600000000     0.0416651  
H65      H      0.776970000000     0.794950000000     0.089430000000     0.0400274  
H66      H      0.694940000000     0.718900000000     0.089940000000     0.0402517  
H67      H      0.706240000000     0.661270000000     0.115280000000     0.0429382  
H68      H      0.793390000000     0.828660000000     0.126610000000     0.0431133  
H69      H      0.832980000000     0.785950000000     0.121910000000     0.0423401  
H70      H      0.796740000000     0.768460000000     0.157690000000     0.0385048  
H71      H      0.665720000000     0.704650000000     0.129160000000     0.0431087  
H72      H      0.720810000000     0.689960000000     0.154800000000     0.0396279  
H73      H      0.648450000000     0.962270000000     0.228020000000     0.0392962  
H74      H      0.567740000000     0.888170000000     0.228860000000     0.0391245  
H75      H      0.512900000000     0.894670000000     0.193190000000     0.0429877  
H76      H      0.680430000000     0.974300000000     0.190120000000     0.0432361  
H77      H      0.640140000000     0.019060000000     0.198190000000     0.042872   
H78      H      0.627490000000     0.987950000000     0.159770000000     0.0400116  
H79      H      0.551930000000     0.851080000000     0.193530000000     0.0427527  
H80      H      0.549740000000     0.908620000000     0.157950000000     0.0393443  
H81      H      0.964640000000     0.572080000000     0.351270000000     0.0384902  
H82      H      0.049330000000     0.613650000000     0.349410000000     0.0363624  
H83      H      0.076570000000     0.575000000000     0.384260000000     0.0427295  
H84      H      0.933190000000     0.525500000000     0.323110000000     0.0416273  
H85      H      0.932410000000     0.500460000000     0.381960000000     0.0403168  
H86      H      0.957540000000     0.478720000000     0.353440000000     0.0421238  
H87      H      0.077820000000     0.593840000000     0.322590000000     0.0401272  
H88      H      0.054720000000     0.527490000000     0.356750000000     0.0419411  
H89      H      0.947800000000     0.485980000000     0.103450000000     0.0412215  
H90      H      0.044470000000     0.533120000000     0.108050000000     0.041721   
H91      H      0.067080000000     0.486540000000     0.140520000000     0.041868   
H92      H      0.925630000000     0.437520000000     0.076890000000     0.0425058  
H93      H      0.922480000000     0.420580000000     0.139050000000     0.0405873  
H94      H      0.950600000000     0.398850000000     0.113740000000     0.037258   
H95      H      0.069700000000     0.509910000000     0.080970000000     0.0398854  
H96      H      0.035780000000     0.439220000000     0.112970000000     0.0378496  
H97      H      0.879040000000     0.567470000000     0.981370000000     0.0379567  
H98      H      0.956440000000     0.640510000000     0.482810000000     0.0389464  
H99      H      0.966690000000     0.672570000000     0.038090000000     0.0444138  
H100     H      0.874940000000     0.515510000000     0.995220000000     0.0427848  
H101     H      0.842690000000     0.544580000000     0.036400000000     0.0424786  
H102     H      0.891160000000     0.544150000000     0.053180000000     0.0403165  
H103     H      0.003100000000     0.638960000000     0.001770000000     0.0436668  
H104     H      0.968780000000     0.625840000000     0.056500000000     0.0400399  
H105     H      0.402950000000     0.202000000000     0.468610000000     0.041335   
H106     H      0.303040000000     0.153020000000     0.464140000000     0.0430657  
H107     H      0.280290000000     0.088730000000     0.426570000000     0.0417459  
H108     H      0.422130000000     0.169760000000     0.491260000000     0.0430055  
H109     H      0.424920000000     0.165200000000     0.427750000000     0.0404708  
H110     H      0.396040000000     0.112330000000     0.449560000000     0.0364456  
H111     H      0.278950000000     0.101730000000     0.488130000000     0.0397707  
H112     H      0.311300000000     0.068870000000     0.450830000000     0.0378135  
H113     H      0.392370000000     0.284560000000     0.218840000000     0.0380852  
H114     H      0.307600000000     0.243030000000     0.219610000000     0.0359295  
H115     H      0.279510000000     0.180570000000     0.181660000000     0.0428887  
H116     H      0.422120000000     0.265480000000     0.245320000000     0.0416881  
H117     H      0.423050000000     0.246950000000     0.184740000000     0.0399667  
H118     H      0.397560000000     0.197750000000     0.211050000000     0.0420778  
H119     H      0.277440000000     0.192600000000     0.244150000000     0.0403606  
H120     H      0.298970000000     0.150870000000     0.207180000000     0.0416393  
H121     H      0.389950000000     0.047020000000     0.306030000000     0.0403166  
H122     H      0.471230000000     0.123820000000     0.306190000000     0.0400825  
H123     H      0.500650000000     0.146730000000     0.248920000000     0.0428286  
H124     H      0.343480000000     0.051490000000     0.290040000000     0.0447215  
H125     H      0.376170000000     0.019010000000     0.249140000000     0.0435863  
H126     H      0.375460000000     0.068250000000     0.234440000000     0.0392648  
H127     H      0.472000000000     0.174780000000     0.293730000000     0.0425696  
H128     H      0.449620000000     0.145530000000     0.236600000000     0.0388327  
H129     H      0.118230000000     0.460290000000     0.428330000000     0.0409023  
H130     H      0.036690000000     0.381470000000     0.428270000000     0.0405189  
H131     H      0.047120000000     0.329260000000     0.462780000000     0.0427484  
H132     H      0.128820000000     0.497580000000     0.462920000000     0.0434626  
H133     H      0.170730000000     0.457080000000     0.469160000000     0.041999   
H134     H      0.129390000000     0.441860000000     0.501490000000     0.038237   
H135     H      0.003220000000     0.371220000000     0.465170000000     0.0433534  
H136     H      0.057230000000     0.363620000000     0.499310000000     0.0389771  
H137     H      0.322270000000     0.295190000000     0.413140000000     0.0401637  
H138     H      0.243330000000     0.219040000000     0.413880000000     0.039877   
H139     H      0.186800000000     0.222130000000     0.377240000000     0.0426929  
H140     H      0.354570000000     0.308510000000     0.375270000000     0.0431491  
H141     H      0.310690000000     0.349970000000     0.382900000000     0.0429742  
H142     H      0.299110000000     0.318450000000     0.344710000000     0.0398575  
H143     H      0.229270000000     0.181770000000     0.378830000000     0.0427582  
H144     H      0.225010000000     0.238230000000     0.342690000000     0.0397498  
H145     H      0.407860000000     0.436660000000     0.383450000000     0.0378706  
H146     H      0.452830000000     0.396470000000     0.385050000000     0.0362533  
H147     H      0.509240000000     0.428580000000     0.342870000000     0.0424192  
H148     H      0.426510000000     0.487290000000     0.407830000000     0.0420496  
H149     H      0.439780000000     0.502470000000     0.346480000000     0.0397614  
H150     H      0.490850000000     0.529900000000     0.370520000000     0.0429548  
H151     H      0.505730000000     0.421770000000     0.406620000000     0.0409061  
H152     H      0.541060000000     0.480160000000     0.365380000000     0.0403208  
H153     H      0.578620000000     0.619380000000     0.114020000000     0.0359665  
H154     H      0.622640000000     0.578530000000     0.115000000000     0.0377581  
H155     H      0.587820000000     0.510130000000     0.149340000000     0.0399088  
H156     H      0.527510000000     0.596820000000     0.090230000000     0.0406574  
H157     H      0.518090000000     0.584090000000     0.153180000000     0.0427717  
H158     H      0.488650000000     0.534380000000     0.128210000000     0.0412741  
H159     H      0.605220000000     0.529720000000     0.088760000000     0.0420196  
H160     H      0.538370000000     0.484900000000     0.123430000000     0.0426093  
H161     H      0.860010000000     0.156120000000     0.446870000000     0.0410209  
H162     H      0.809770000000     0.207220000000     0.452140000000     0.0434238  
H163     H      0.852420000000     0.271150000000     0.489590000000     0.0416998  
H164     H      0.911360000000     0.188910000000     0.424470000000     0.0427805  
H165     H      0.917530000000     0.191540000000     0.488330000000     0.0409201  
H166     H      0.942910000000     0.244700000000     0.466900000000     0.0354813  
H167     H      0.837830000000     0.258300000000     0.428040000000     0.0394601  
H168     H      0.902970000000     0.289900000000     0.465260000000     0.0382965  
H169     H      0.722770000000     0.108590000000     0.214080000000     0.0380434  
H170     H      0.767180000000     0.068360000000     0.215660000000     0.0353968  
H171     H      0.825380000000     0.101980000000     0.175020000000     0.0425447  
H172     H      0.740190000000     0.158060000000     0.239610000000     0.0421038  
H173     H      0.756060000000     0.175850000000     0.178690000000     0.0394222  
H174     H      0.805920000000     0.202540000000     0.204080000000     0.0432705  
H175     H      0.819100000000     0.092220000000     0.238520000000     0.0406622  
H176     H      0.856660000000     0.152370000000     0.198950000000     0.0408918  
H177     H      0.199730000000     0.393930000000     0.287320000000     0.0408514  
H178     H      0.149020000000     0.292230000000     0.292000000000     0.0433889  
H179     H      0.087690000000     0.270840000000     0.331820000000     0.0420067  
H180     H      0.165720000000     0.412780000000     0.266930000000     0.042342   
H181     H      0.166640000000     0.415790000000     0.330860000000     0.0411009  
H182     H      0.112460000000     0.387980000000     0.311130000000     0.0358579  
H183     H      0.096670000000     0.269680000000     0.269760000000     0.0398312  
H184     H      0.067620000000     0.303040000000     0.309360000000     0.0378115  
H185     H      0.285330000000     0.379880000000     0.038820000000     0.037719   
H186     H      0.241790000000     0.295050000000     0.038450000000     0.0361635  
H187     H      0.181210000000     0.269020000000     0.077610000000     0.0428198  
H188     H      0.266990000000     0.410790000000     0.012950000000     0.0420948  
H189     H      0.251010000000     0.412810000000     0.073970000000     0.040038   
H190     H      0.201200000000     0.388880000000     0.048500000000     0.042646   
H191     H      0.190560000000     0.265730000000     0.014870000000     0.0407736  
H192     H      0.151520000000     0.289130000000     0.052810000000     0.041472   
H193     H      0.976100000000     0.220090000000     0.162160000000     0.0387363  
H194     H      0.977240000000     0.298600000000     0.159880000000     0.0403186  
H195     H      0.049850000000     0.353280000000     0.137860000000     0.0437697  
H196     H      0.960090000000     0.186370000000     0.125020000000     0.0426559  
H197     H      0.041420000000     0.223260000000     0.134720000000     0.0428862  
H198     H      0.029010000000     0.242610000000     0.096710000000     0.0396418  
H199     H      0.967710000000     0.315990000000     0.119800000000     0.0428563  
H200     H      0.037640000000     0.325930000000     0.097890000000     0.0395091  
H201     H      0.368710000000     0.388140000000     0.178560000000     0.0396681  
H202     H      0.364580000000     0.465090000000     0.178460000000     0.0397187  
H203     H      0.301380000000     0.458680000000     0.212030000000     0.0426758  
H204     H      0.383340000000     0.373010000000     0.217600000000     0.043157   
H205     H      0.299290000000     0.331820000000     0.203750000000     0.0426043  
H206     H      0.314370000000     0.359740000000     0.243570000000     0.0396052  
H207     H      0.383420000000     0.499200000000     0.215410000000     0.0430214  
H208     H      0.320000000000     0.440050000000     0.247280000000     0.0391426  
H209     H      0.573980000000     0.976100000000     0.352330000000     0.0375908  
H210     H      0.618370000000     0.061090000000     0.352740000000     0.0371809  
H211     H      0.582240000000     0.091320000000     0.318100000000     0.0428428  
H212     H      0.526530000000     0.946980000000     0.380120000000     0.0415076  
H213     H      0.504280000000     0.946900000000     0.320200000000     0.0403272  
H214     H      0.482850000000     0.972960000000     0.348090000000     0.0421997  
H215     H      0.601040000000     0.092010000000     0.379330000000     0.0397876  
H216     H      0.534810000000     0.070710000000     0.345470000000     0.0422904  
H217     H      0.405430000000     0.976040000000     0.084760000000     0.035652   
H218     H      0.446690000000     0.060960000000     0.086100000000     0.038648   
H219     H      0.511320000000     0.093120000000     0.123800000000     0.0395419  
H220     H      0.429280000000     0.947100000000     0.062840000000     0.0403507  
H221     H      0.436460000000     0.949230000000     0.126230000000     0.0426658  
H222     H      0.488030000000     0.969240000000     0.103750000000     0.0415449  
H223     H      0.497780000000     0.092160000000     0.062120000000     0.041812   
H224     H      0.538670000000     0.069110000000     0.099960000000     0.042885   
H225     H      0.691770000000     0.145360000000     0.490540000000     0.0397777  
H226     H      0.689100000000     0.065570000000     0.991680000000     0.0398752  
H227     H      0.712720000000     0.056660000000     0.046630000000     0.0436461  
H228     H      0.643820000000     0.146740000000     0.507340000000     0.042655   
H229     H      0.708660000000     0.180740000000     0.045840000000     0.0426036  
H230     H      0.661120000000     0.131830000000     0.063670000000     0.0395538  
H231     H      0.641690000000     0.019650000000     0.011910000000     0.0438753  
H232     H      0.665000000000     0.055600000000     0.065840000000     0.039569   
H233     H      0.278160000000     0.896580000000     0.246180000000     0.0370818  
H234     H      0.231680000000     0.934480000000     0.246000000000     0.0377792  
H235     H      0.156970000000     0.885900000000     0.221870000000     0.04111    
H236     H      0.268840000000     0.855330000000     0.277790000000     0.039251   
H237     H      0.237450000000     0.821260000000     0.221560000000     0.0426955  
H238     H      0.195540000000     0.802270000000     0.253620000000     0.0439545  
H239     H      0.189340000000     0.920470000000     0.277720000000     0.0414506  
H240     H      0.143070000000     0.844410000000     0.254230000000     0.0412547  
H241     H      0.210140000000     0.817630000000     0.001390000000     0.0425401  
H242     H      0.161680000000     0.867490000000     0.004950000000     0.0412231  
H243     H      0.103240000000     0.833030000000     0.963360000000     0.0408006  
H244     H      0.181830000000     0.765230000000     0.024110000000     0.040016   
H245     H      0.170010000000     0.754780000000     0.962410000000     0.0420729  
H246     H      0.118260000000     0.734670000000     0.985500000000     0.0380962  
H247     H      0.109200000000     0.836830000000     0.026570000000     0.0426618  
H248     H      0.078130000000     0.779510000000     0.984430000000     0.0363195  
H249     H      0.355870000000     0.979030000000     0.380920000000     0.0394319  
H250     H      0.364420000000     0.905160000000     0.383310000000     0.0393624  
H251     H      0.387970000000     0.893240000000     0.438420000000     0.0427752  
H252     H      0.310710000000     0.977320000000     0.404570000000     0.0447404  
H253     H      0.388360000000     0.019230000000     0.931760000000     0.0435312  
H254     H      0.344600000000     0.976090000000     0.456660000000     0.0392426  
H255     H      0.320190000000     0.856260000000     0.403910000000     0.0425565  
H256     H      0.341730000000     0.895150000000     0.458010000000     0.0400451  
H257     H      0.793050000000     0.714650000000     0.452570000000     0.038299   
H258     H      0.751300000000     0.628810000000     0.451160000000     0.0391598  
H259     H      0.797640000000     0.598670000000     0.428010000000     0.0413695  
H260     H      0.835620000000     0.743910000000     0.483760000000     0.0404453  
H261     H      0.866740000000     0.744290000000     0.426330000000     0.042281   
H262     H      0.884350000000     0.719400000000     0.457990000000     0.0421676  
H263     H      0.762970000000     0.598540000000     0.482810000000     0.0419715  
H264     H      0.839510000000     0.626830000000     0.460000000000     0.0406004  
H265     H      0.838920000000     0.706890000000     0.194880000000     0.0408295  
H266     H      0.791150000000     0.614250000000     0.197490000000     0.0421474  
H267     H      0.837650000000     0.586940000000     0.171780000000     0.0402455  
H268     H      0.881320000000     0.734210000000     0.226690000000     0.0409403  
H269     H      0.914990000000     0.732240000000     0.171980000000     0.0419789  
H270     H      0.925000000000     0.700910000000     0.203740000000     0.0387102  
H271     H      0.807630000000     0.588500000000     0.229280000000     0.0415864  
H272     H      0.880830000000     0.615510000000     0.202730000000     0.0384725  
H273     H      0.689310000000     0.640240000000     0.266170000000     0.040796   
H274     H      0.692790000000     0.562460000000     0.268110000000     0.0411557  
H275     H      0.699210000000     0.541270000000     0.326560000000     0.0425584  
H276     H      0.639370000000     0.637370000000     0.282720000000     0.0438421  
H277     H      0.706100000000     0.670770000000     0.322480000000     0.043583   
H278     H      0.656410000000     0.622570000000     0.338580000000     0.0387153  
H279     H      0.642670000000     0.512550000000     0.281750000000     0.0430103  
H280     H      0.650900000000     0.545700000000     0.338070000000     0.038096   
H281     H      0.017430000000     0.792220000000     0.365770000000     0.042292   
H282     H      0.025790000000     0.711510000000     0.369410000000     0.0399152  
H283     H      0.973930000000     0.664420000000     0.327760000000     0.0440283  
H284     H      0.054600000000     0.831990000000     0.335200000000     0.0417903  
H285     H      0.977380000000     0.791260000000     0.314370000000     0.0426039  
H286     H      0.014120000000     0.779400000000     0.289900000000     0.0371385  
H287     H      0.060090000000     0.709850000000     0.336480000000     0.0432378  
H288     H      0.007190000000     0.701120000000     0.294510000000     0.0384781  
H289     H      0.705970000000     0.024010000000     0.903180000000     0.0404589  
H290     H      0.782470000000     0.022820000000     0.906640000000     0.039767   
H291     H      0.786560000000     0.968840000000     0.867150000000     0.0426847  
H292     H      0.695180000000     0.045320000000     0.865320000000     0.0430044  
H293     H      0.656030000000     0.959200000000     0.869530000000     0.0436706  
H294     H      0.690150000000     0.983170000000     0.832970000000     0.0392208  
H295     H      0.823390000000     0.050820000000     0.874400000000     0.0426373  
H296     H      0.771730000000     0.993490000000     0.833440000000     0.0401721  
H297     H      0.895410000000     0.373030000000     0.816780000000     0.0383826  
H298     H      0.971880000000     0.370820000000     0.815420000000     0.0401427  
H299     H      0.956370000000     0.298580000000     0.792960000000     0.0433715  
H300     H      0.876900000000     0.385900000000     0.778620000000     0.0425184  
H301     H      0.833770000000     0.304440000000     0.792950000000     0.0427855  
H302     H      0.862550000000     0.314780000000     0.753770000000     0.0394385  
H303     H      0.999680000000     0.380330000000     0.775730000000     0.0435031  
H304     H      0.939330000000     0.310030000000     0.753450000000     0.0404949  
H305     H      0.124650000000     0.677660000000     0.700210000000     0.0408943  
H306     H      0.043640000000     0.676450000000     0.700340000000     0.0402202  
H307     H      0.033400000000     0.695250000000     0.643980000000     0.0448933  
H308     H      0.122590000000     0.626710000000     0.686090000000     0.0425728  
H309     H      0.154100000000     0.685400000000     0.642760000000     0.0427513  
H310     H      0.101750000000     0.637740000000     0.629580000000     0.0382498  
H311     H      0.997080000000     0.627120000000     0.682510000000     0.0443703  
H312     H      0.030720000000     0.645080000000     0.627630000000     0.0390263  
H313     H      0.570310000000     0.689940000000     0.988330000000     0.0403127  
H314     H      0.651730000000     0.698680000000     0.987590000000     0.0403044  
H315     H      0.644400000000     0.634260000000     0.956870000000     0.0437243  
H316     H      0.554410000000     0.712220000000     0.953700000000     0.0427562  
H317     H      0.516360000000     0.629540000000     0.950450000000     0.0424777  
H318     H      0.555290000000     0.654580000000     0.916570000000     0.0394586  
H319     H      0.683980000000     0.719870000000     0.949870000000     0.0434508  
H320     H      0.631430000000     0.653320000000     0.918810000000     0.0392359  
H321     H      0.225890000000     0.992640000000     0.574080000000     0.0402624  
H322     H      0.300440000000     0.985090000000     0.574320000000     0.0397177  
H323     H      0.352210000000     0.042600000000     0.612300000000     0.0434832  
H324     H      0.184710000000     0.962780000000     0.605880000000     0.0430699  
H325     H      0.226950000000     0.043540000000     0.618610000000     0.0425547  
H326     H      0.238170000000     0.012000000000     0.649120000000     0.038447   
H327     H      0.307420000000     0.956560000000     0.609460000000     0.0432516  
H328     H      0.316130000000     0.015310000000     0.647450000000     0.0393227  
H329     H      0.376760000000     0.318580000000     0.518890000000     0.0406162  
H330     H      0.458090000000     0.321300000000     0.517750000000     0.0399402  
H331     H      0.515490000000     0.388570000000     0.546960000000     0.0422981  
H332     H      0.348570000000     0.304990000000     0.558550000000     0.0433117  
H333     H      0.389540000000     0.388230000000     0.544450000000     0.0430389  
H334     H      0.406380000000     0.374580000000     0.583250000000     0.0393798  
H335     H      0.474740000000     0.306090000000     0.555800000000     0.043096   
H336     H      0.481730000000     0.372530000000     0.584070000000     0.0382946  
H337     H      0.619600000000     0.812060000000     0.777630000000     0.0413038  
H338     H      0.719460000000     0.863920000000     0.782330000000     0.0429783  
H339     H      0.742320000000     0.822380000000     0.819730000000     0.041866   
H340     H      0.600910000000     0.761040000000     0.754500000000     0.0427671  
H341     H      0.597620000000     0.752280000000     0.817790000000     0.0406549  
H342     H      0.627370000000     0.729480000000     0.795780000000     0.0358304  
H343     H      0.744040000000     0.837370000000     0.758240000000     0.0400907  
H344     H      0.711980000000     0.771740000000     0.795140000000     0.0375958  
H345     H      0.629470000000     0.906990000000     0.525900000000     0.0375989  
H346     H      0.713940000000     0.950440000000     0.524410000000     0.0357208  
H347     H      0.742330000000     0.919050000000     0.564400000000     0.042654   
H348     H      0.599320000000     0.856620000000     0.500970000000     0.0416914  
H349     H      0.599230000000     0.840900000000     0.562210000000     0.0402335  
H350     H      0.623920000000     0.815370000000     0.537100000000     0.0429691  
H351     H      0.744020000000     0.928980000000     0.501240000000     0.0405925  
H352     H      0.723940000000     0.868600000000     0.540600000000     0.041653   
H353     H      0.776970000000     0.794950000000     0.589430000000     0.0400179  
H354     H      0.694940000000     0.718900000000     0.589940000000     0.0402437  
H355     H      0.706240000000     0.661270000000     0.615280000000     0.0429559  
H356     H      0.793390000000     0.828660000000     0.626600000000     0.0431054  
H357     H      0.832980000000     0.785940000000     0.621910000000     0.0423514  
H358     H      0.796740000000     0.768460000000     0.657690000000     0.0385094  
H359     H      0.665720000000     0.704660000000     0.629160000000     0.0431098  
H360     H      0.720810000000     0.689960000000     0.654800000000     0.0396415  
H361     H      0.648450000000     0.962260000000     0.728010000000     0.0393223  
H362     H      0.567740000000     0.888170000000     0.728860000000     0.0391324  
H363     H      0.512900000000     0.894670000000     0.693190000000     0.042987   
H364     H      0.680430000000     0.974290000000     0.690120000000     0.0432531  
H365     H      0.640140000000     0.019060000000     0.698190000000     0.0428657  
H366     H      0.627490000000     0.987950000000     0.659770000000     0.0400028  
H367     H      0.551930000000     0.851090000000     0.693530000000     0.0427575  
H368     H      0.549740000000     0.908630000000     0.657950000000     0.0393375  
H369     H      0.964640000000     0.572080000000     0.851270000000     0.038485   
H370     H      0.049330000000     0.613650000000     0.849410000000     0.0363576  
H371     H      0.076570000000     0.575000000000     0.884260000000     0.0427293  
H372     H      0.933190000000     0.525500000000     0.823110000000     0.0416215  
H373     H      0.932410000000     0.500460000000     0.881960000000     0.0403158  
H374     H      0.957540000000     0.478720000000     0.853440000000     0.0421275  
H375     H      0.077820000000     0.593840000000     0.822590000000     0.0401169  
H376     H      0.054720000000     0.527490000000     0.856750000000     0.041942   
H377     H      0.947800000000     0.485980000000     0.603450000000     0.0412192  
H378     H      0.044470000000     0.533120000000     0.608050000000     0.0417063  
H379     H      0.067080000000     0.486540000000     0.640520000000     0.041869   
H380     H      0.925630000000     0.437520000000     0.576890000000     0.0424895  
H381     H      0.922480000000     0.420580000000     0.639050000000     0.0405956  
H382     H      0.950600000000     0.398850000000     0.613740000000     0.0372624  
H383     H      0.069700000000     0.509910000000     0.580960000000     0.0398645  
H384     H      0.035780000000     0.439220000000     0.612970000000     0.0378491  
H385     H      0.879040000000     0.567470000000     0.481370000000     0.0379577  
H386     H      0.956440000000     0.640510000000     0.982810000000     0.0389259  
H387     H      0.966690000000     0.672570000000     0.538090000000     0.0444158  
H388     H      0.874940000000     0.515510000000     0.495220000000     0.0427937  
H389     H      0.842690000000     0.544580000000     0.536400000000     0.0424897  
H390     H      0.891160000000     0.544150000000     0.553180000000     0.0403269  
H391     H      0.003100000000     0.638960000000     0.501760000000     0.0436473  
H392     H      0.968780000000     0.625850000000     0.556500000000     0.0400507  
H393     H      0.402950000000     0.202000000000     0.968610000000     0.0413243  
H394     H      0.303040000000     0.153020000000     0.964140000000     0.0430647  
H395     H      0.280290000000     0.088730000000     0.926570000000     0.0417438  
H396     H      0.422130000000     0.169760000000     0.991260000000     0.0429885  
H397     H      0.424920000000     0.165200000000     0.927750000000     0.0404677  
H398     H      0.396040000000     0.112330000000     0.949560000000     0.0364411  
H399     H      0.278950000000     0.101730000000     0.988130000000     0.0397617  
H400     H      0.311300000000     0.068870000000     0.950830000000     0.0378083  
H401     H      0.392370000000     0.284560000000     0.718840000000     0.0380826  
H402     H      0.307600000000     0.243030000000     0.719610000000     0.0359295  
H403     H      0.279510000000     0.180570000000     0.681660000000     0.0428894  
H404     H      0.422120000000     0.265480000000     0.745320000000     0.0416858  
H405     H      0.423050000000     0.246950000000     0.684740000000     0.039977   
H406     H      0.397560000000     0.197750000000     0.711050000000     0.0420902  
H407     H      0.277440000000     0.192600000000     0.744150000000     0.0403612  
H408     H      0.298970000000     0.150870000000     0.707180000000     0.0416415  
H409     H      0.389950000000     0.047020000000     0.806030000000     0.0403193  
H410     H      0.471230000000     0.123820000000     0.806190000000     0.0400837  
H411     H      0.500650000000     0.146730000000     0.748910000000     0.0428298  
H412     H      0.343490000000     0.051490000000     0.790040000000     0.044724   
H413     H      0.376170000000     0.019010000000     0.749140000000     0.0435804  
H414     H      0.375460000000     0.068250000000     0.734440000000     0.0392573  
H415     H      0.472000000000     0.174780000000     0.793730000000     0.0425698  
H416     H      0.449620000000     0.145530000000     0.736600000000     0.0388308  
H417     H      0.118230000000     0.460290000000     0.928330000000     0.0408823  
H418     H      0.036690000000     0.381470000000     0.928270000000     0.0405161  
H419     H      0.047120000000     0.329260000000     0.962780000000     0.0427422  
H420     H      0.128820000000     0.497580000000     0.962920000000     0.043437   
H421     H      0.170730000000     0.457080000000     0.969160000000     0.0420124  
H422     H      0.129390000000     0.441860000000     0.001490000000     0.0382997  
H423     H      0.003220000000     0.371220000000     0.965170000000     0.0433488  
H424     H      0.057230000000     0.363620000000     0.999310000000     0.0389678  
H425     H      0.322270000000     0.295190000000     0.913140000000     0.0401761  
H426     H      0.243330000000     0.219040000000     0.913880000000     0.0398725  
H427     H      0.186800000000     0.222130000000     0.877240000000     0.0426907  
H428     H      0.354570000000     0.308510000000     0.875270000000     0.0431648  
H429     H      0.310690000000     0.349980000000     0.882900000000     0.0429593  
H430     H      0.299110000000     0.318450000000     0.844710000000     0.0398482  
H431     H      0.229270000000     0.181770000000     0.878830000000     0.0427612  
H432     H      0.225010000000     0.238230000000     0.842690000000     0.0397509  
H433     H      0.407860000000     0.436660000000     0.883450000000     0.0378448  
H434     H      0.452820000000     0.396470000000     0.885050000000     0.036276   
H435     H      0.509240000000     0.428580000000     0.842870000000     0.0424114  
H436     H      0.426510000000     0.487290000000     0.907830000000     0.0420159  
H437     H      0.439780000000     0.502470000000     0.846490000000     0.0398012  
H438     H      0.490850000000     0.529900000000     0.870520000000     0.0429949  
H439     H      0.505730000000     0.421760000000     0.906620000000     0.04092    
H440     H      0.541070000000     0.480160000000     0.865380000000     0.0403031  
H441     H      0.578620000000     0.619380000000     0.614020000000     0.0359593  
H442     H      0.622640000000     0.578530000000     0.615000000000     0.0377568  
H443     H      0.587820000000     0.510130000000     0.649340000000     0.0399108  
H444     H      0.527510000000     0.596820000000     0.590230000000     0.0406459  
H445     H      0.518090000000     0.584090000000     0.653180000000     0.0427964  
H446     H      0.488650000000     0.534380000000     0.628210000000     0.041292   
H447     H      0.605220000000     0.529720000000     0.588760000000     0.0420148  
H448     H      0.538370000000     0.484900000000     0.623430000000     0.0426084  
H449     H      0.860010000000     0.156120000000     0.946870000000     0.041017   
H450     H      0.809770000000     0.207220000000     0.952140000000     0.0434234  
H451     H      0.852420000000     0.271150000000     0.989590000000     0.0416956  
H452     H      0.911360000000     0.188910000000     0.924470000000     0.0427771  
H453     H      0.917530000000     0.191540000000     0.988330000000     0.0409076  
H454     H      0.942910000000     0.244700000000     0.966900000000     0.0354771  
H455     H      0.837830000000     0.258300000000     0.928040000000     0.0394577  
H456     H      0.902970000000     0.289900000000     0.965260000000     0.0382903  
H457     H      0.722770000000     0.108590000000     0.714080000000     0.0380446  
H458     H      0.767180000000     0.068360000000     0.715660000000     0.035399   
H459     H      0.825380000000     0.101980000000     0.675020000000     0.0425409  
H460     H      0.740200000000     0.158060000000     0.739620000000     0.042112   
H461     H      0.756060000000     0.175850000000     0.678690000000     0.0394192  
H462     H      0.805920000000     0.202540000000     0.704080000000     0.0432662  
H463     H      0.819100000000     0.092220000000     0.738510000000     0.0406596  
H464     H      0.856660000000     0.152370000000     0.698950000000     0.0408866  
H465     H      0.199730000000     0.393940000000     0.787320000000     0.040848   
H466     H      0.149020000000     0.292230000000     0.792000000000     0.0433833  
H467     H      0.087690000000     0.270840000000     0.831820000000     0.0420067  
H468     H      0.165730000000     0.412780000000     0.766930000000     0.0423428  
H469     H      0.166640000000     0.415790000000     0.830860000000     0.0410947  
H470     H      0.112460000000     0.387980000000     0.811130000000     0.0358552  
H471     H      0.096670000000     0.269670000000     0.769760000000     0.0398194  
H472     H      0.067620000000     0.303040000000     0.809360000000     0.0378126  
H473     H      0.285330000000     0.379880000000     0.538820000000     0.0377134  
H474     H      0.241790000000     0.295050000000     0.538450000000     0.036158   
H475     H      0.181210000000     0.269020000000     0.577610000000     0.0428176  
H476     H      0.266990000000     0.410790000000     0.512950000000     0.0420893  
H477     H      0.251010000000     0.412800000000     0.573970000000     0.0400393  
H478     H      0.201200000000     0.388880000000     0.548500000000     0.0426356  
H479     H      0.190560000000     0.265730000000     0.514870000000     0.0407573  
H480     H      0.151520000000     0.289130000000     0.552810000000     0.0414641  
H481     H      0.976100000000     0.220090000000     0.662160000000     0.0387341  
H482     H      0.977240000000     0.298600000000     0.659880000000     0.0403092  
H483     H      0.049850000000     0.353280000000     0.637860000000     0.0437885  
H484     H      0.960090000000     0.186370000000     0.625020000000     0.0426549  
H485     H      0.041420000000     0.223260000000     0.634720000000     0.0428807  
H486     H      0.029010000000     0.242610000000     0.596710000000     0.0396362  
H487     H      0.967710000000     0.315990000000     0.619800000000     0.0428495  
H488     H      0.037640000000     0.325930000000     0.597890000000     0.0395288  
H489     H      0.368710000000     0.388130000000     0.678560000000     0.0396895  
H490     H      0.364580000000     0.465090000000     0.678460000000     0.0397218  
H491     H      0.301380000000     0.458680000000     0.712030000000     0.0426606  
H492     H      0.383340000000     0.373010000000     0.717600000000     0.0431857  
H493     H      0.299290000000     0.331820000000     0.703750000000     0.0425929  
H494     H      0.314370000000     0.359730000000     0.743570000000     0.0395882  
H495     H      0.383420000000     0.499200000000     0.715410000000     0.0430245  
H496     H      0.320000000000     0.440040000000     0.747280000000     0.0391384  
H497     H      0.573980000000     0.976100000000     0.852330000000     0.0376025  
H498     H      0.618370000000     0.061090000000     0.852740000000     0.0371874  
H499     H      0.582240000000     0.091320000000     0.818100000000     0.0428283  
H500     H      0.526530000000     0.946980000000     0.880120000000     0.0415066  
H501     H      0.504280000000     0.946890000000     0.820200000000     0.0402869  
H502     H      0.482850000000     0.972960000000     0.848090000000     0.0421644  
H503     H      0.601040000000     0.092010000000     0.879330000000     0.0397913  
H504     H      0.534800000000     0.070710000000     0.845470000000     0.0422628  
H505     H      0.405430000000     0.976030000000     0.584760000000     0.0356269  
H506     H      0.446690000000     0.060960000000     0.586090000000     0.0386491  
H507     H      0.511320000000     0.093120000000     0.623800000000     0.0395455  
H508     H      0.429280000000     0.947100000000     0.562840000000     0.0403193  
H509     H      0.436460000000     0.949230000000     0.626230000000     0.0426743  
H510     H      0.488030000000     0.969240000000     0.603750000000     0.0415516  
H511     H      0.497780000000     0.092160000000     0.562120000000     0.041804   
H512     H      0.538670000000     0.069110000000     0.599960000000     0.0428874  
H513     H      0.691770000000     0.145360000000     0.990540000000     0.0397369  
H514     H      0.689100000000     0.065570000000     0.491680000000     0.0399173  
H515     H      0.712720000000     0.056660000000     0.546630000000     0.0436352  
H516     H      0.643820000000     0.146740000000     0.007340000000     0.0426582  
H517     H      0.708660000000     0.180740000000     0.545840000000     0.0425891  
H518     H      0.661120000000     0.131830000000     0.563670000000     0.0395489  
H519     H      0.641690000000     0.019650000000     0.511910000000     0.0438766  
H520     H      0.665000000000     0.055600000000     0.565840000000     0.0395659  
H521     H      0.278160000000     0.896580000000     0.746180000000     0.0370856  
H522     H      0.231680000000     0.934490000000     0.746000000000     0.0377676  
H523     H      0.156970000000     0.885900000000     0.721870000000     0.0411102  
H524     H      0.268840000000     0.855330000000     0.777790000000     0.0392519  
H525     H      0.237450000000     0.821260000000     0.721560000000     0.0427021  
H526     H      0.195540000000     0.802270000000     0.753620000000     0.043951   
H527     H      0.189340000000     0.920470000000     0.777720000000     0.0414438  
H528     H      0.143070000000     0.844400000000     0.754230000000     0.0412544  
H529     H      0.210140000000     0.817630000000     0.501390000000     0.0425552  
H530     H      0.161680000000     0.867490000000     0.504950000000     0.0412268  
H531     H      0.103240000000     0.833040000000     0.463360000000     0.0407494  
H532     H      0.181830000000     0.765230000000     0.524110000000     0.0400409  
H533     H      0.170010000000     0.754780000000     0.462410000000     0.0420609  
H534     H      0.118260000000     0.734670000000     0.485500000000     0.0380916  
H535     H      0.109200000000     0.836830000000     0.526570000000     0.0426713  
H536     H      0.078130000000     0.779510000000     0.484430000000     0.0362842  
H537     H      0.355870000000     0.979030000000     0.880920000000     0.0394378  
H538     H      0.364420000000     0.905160000000     0.883310000000     0.0393659  
H539     H      0.387970000000     0.893240000000     0.938420000000     0.0427619  
H540     H      0.310710000000     0.977320000000     0.904570000000     0.0447497  
H541     H      0.388360000000     0.019230000000     0.431760000000     0.0435358  
H542     H      0.344600000000     0.976090000000     0.956660000000     0.0392356  
H543     H      0.320190000000     0.856260000000     0.903910000000     0.0425616  
H544     H      0.341730000000     0.895140000000     0.958010000000     0.0400278  
H545     H      0.793050000000     0.714650000000     0.952560000000     0.0382804  
H546     H      0.751310000000     0.628810000000     0.951160000000     0.0391772  
H547     H      0.797630000000     0.598660000000     0.928010000000     0.0413131  
H548     H      0.835620000000     0.743910000000     0.983760000000     0.0404186  
H549     H      0.866740000000     0.744300000000     0.926330000000     0.0422908  
H550     H      0.884340000000     0.719390000000     0.957990000000     0.0421863  
H551     H      0.762980000000     0.598540000000     0.982810000000     0.0419715  
H552     H      0.839510000000     0.626830000000     0.960000000000     0.040552   
H553     H      0.838920000000     0.706890000000     0.694880000000     0.0408295  
H554     H      0.791150000000     0.614250000000     0.697490000000     0.0421234  
H555     H      0.837650000000     0.586940000000     0.671780000000     0.0402548  
H556     H      0.881320000000     0.734210000000     0.726690000000     0.04094    
H557     H      0.914990000000     0.732240000000     0.671980000000     0.0419842  
H558     H      0.925000000000     0.700910000000     0.703730000000     0.0387199  
H559     H      0.807630000000     0.588500000000     0.729280000000     0.0415622  
H560     H      0.880830000000     0.615500000000     0.702730000000     0.0384686  
H561     H      0.689310000000     0.640240000000     0.766170000000     0.0407986  
H562     H      0.692790000000     0.562460000000     0.768110000000     0.0411583  
H563     H      0.699210000000     0.541270000000     0.826560000000     0.0425566  
H564     H      0.639370000000     0.637370000000     0.782720000000     0.043844   
H565     H      0.706100000000     0.670770000000     0.822480000000     0.0435831  
H566     H      0.656410000000     0.622570000000     0.838580000000     0.0387143  
H567     H      0.642670000000     0.512550000000     0.781750000000     0.0430106  
H568     H      0.650900000000     0.545700000000     0.838070000000     0.0380946  
H569     H      0.017430000000     0.792230000000     0.865770000000     0.0422823  
H570     H      0.025790000000     0.711510000000     0.869410000000     0.039932   
H571     H      0.973930000000     0.664420000000     0.827760000000     0.0439932  
H572     H      0.054600000000     0.831990000000     0.835200000000     0.0417895  
H573     H      0.977380000000     0.791260000000     0.814370000000     0.0426024  
H574     H      0.014120000000     0.779400000000     0.789900000000     0.0371394  
H575     H      0.060090000000     0.709860000000     0.836480000000     0.043266   
H576     H      0.007190000000     0.701120000000     0.794510000000     0.0384431  
N1       N      0.718970000000     0.959060000000     0.368280000000    -0.171145   
N2       N      0.761330000000     0.052980000000     0.370070000000    -0.171227   
N3       N      0.892010000000     0.295630000000     0.292050000000    -0.170049   
N4       N      0.941200000000     0.388320000000     0.276990000000    -0.170247   
N5       N      0.096250000000     0.694970000000     0.142080000000    -0.17086    
N6       N      0.058660000000     0.625070000000     0.188970000000    -0.17044    
N7       N      0.578280000000     0.627080000000     0.453870000000    -0.171132   
N8       N      0.621660000000     0.721090000000     0.452030000000    -0.171001   
N9       N      0.292210000000     0.047950000000     0.115560000000    -0.171188   
N10      N      0.243560000000     0.954550000000     0.105950000000    -0.170911   
N11      N      0.454730000000     0.393060000000     0.044890000000    -0.170978   
N12      N      0.408540000000     0.299630000000     0.055530000000    -0.170574   
N13      N      0.669870000000     0.789470000000     0.321910000000    -0.170879   
N14      N      0.672420000000     0.808050000000     0.253730000000    -0.169651   
N15      N      0.671100000000     0.871110000000     0.065760000000    -0.169681   
N16      N      0.671720000000     0.890620000000     0.997940000000    -0.170988   
N17      N      0.771910000000     0.720840000000     0.118420000000    -0.17098    
N18      N      0.726620000000     0.769420000000     0.126740000000    -0.170398   
N19      N      0.574210000000     0.959910000000     0.194660000000    -0.170775   
N20      N      0.618740000000     0.910080000000     0.192200000000    -0.170748   
N21      N      0.004440000000     0.530490000000     0.385140000000    -0.170404   
N22      N      0.005510000000     0.557940000000     0.319610000000    -0.171621   
N23      N      0.994710000000     0.454940000000     0.143070000000    -0.170981   
N24      N      0.997950000000     0.480740000000     0.076590000000    -0.17006    
N25      N      0.903390000000     0.609750000000     0.041370000000    -0.17125    
N26      N      0.941330000000     0.574980000000     0.997240000000    -0.171163   
N27      N      0.352630000000     0.129130000000     0.424120000000    -0.171102   
N28      N      0.350560000000     0.144560000000     0.492340000000    -0.169847   
N29      N      0.351150000000     0.205560000000     0.180900000000    -0.169976   
N30      N      0.349670000000     0.227130000000     0.247910000000    -0.171012   
N31      N      0.440500000000     0.080780000000     0.247170000000    -0.170866   
N32      N      0.406430000000     0.114190000000     0.295800000000    -0.170679   
N33      N      0.111260000000     0.390970000000     0.465000000000    -0.171264   
N34      N      0.063040000000     0.436830000000     0.461550000000    -0.170496   
N35      N      0.246290000000     0.288640000000     0.379950000000    -0.170662   
N36      N      0.294680000000     0.242810000000     0.377340000000    -0.170645   
N37      N      0.483240000000     0.474400000000     0.341950000000    -0.16932    
N38      N      0.467930000000     0.456350000000     0.410460000000    -0.170221   
N39      N      0.544620000000     0.538590000000     0.153610000000    -0.169605   
N40      N      0.564460000000     0.561410000000     0.086230000000    -0.170645   
N41      N      0.883080000000     0.229480000000     0.492100000000    -0.170493   
N42      N      0.864840000000     0.213910000000     0.423710000000    -0.169402   
N43      N      0.800120000000     0.148450000000     0.174640000000    -0.169994   
N44      N      0.781810000000     0.127330000000     0.242200000000    -0.170916   
N45      N      0.129410000000     0.343240000000     0.334450000000    -0.170422   
N46      N      0.140870000000     0.341180000000     0.265330000000    -0.169488   
N47      N      0.207510000000     0.341090000000     0.078190000000    -0.169618   
N48      N      0.226710000000     0.338190000000     0.010660000000    -0.170584   
N49      N      0.051390000000     0.291040000000     0.135420000000    -0.170413   
N50      N      0.958720000000     0.249060000000     0.122350000000    -0.170767   
N51      N      0.295210000000     0.392510000000     0.207930000000    -0.170894   
N52      N      0.388940000000     0.438660000000     0.215530000000    -0.170762   
N53      N      0.535970000000     0.019250000000     0.317080000000    -0.170564   
N54      N      0.562080000000     0.019630000000     0.382800000000    -0.171824   
N55      N      0.482280000000     0.021200000000     0.127630000000    -0.170859   
N56      N      0.465860000000     0.019640000000     0.059660000000    -0.171645   
N57      N      0.714060000000     0.120480000000     0.049360000000    -0.170283   
N58      N      0.639470000000     0.081410000000     0.006360000000    -0.170266   
N59      N      0.191680000000     0.847770000000     0.219940000000    -0.171949   
N60      N      0.227600000000     0.886200000000     0.281050000000    -0.172731   
N61      N      0.139030000000     0.796280000000     0.960090000000    -0.172309   
N62      N      0.152870000000     0.808170000000     0.028230000000    -0.171797   
N63      N      0.391490000000     0.958270000000     0.438780000000    -0.170555   
N64      N      0.311770000000     0.914790000000     0.401210000000    -0.170641   
N65      N      0.836390000000     0.671520000000     0.424840000000    -0.171352   
N66      N      0.799910000000     0.671290000000     0.486660000000    -0.171776   
N67      N      0.875230000000     0.659510000000     0.168500000000    -0.172371   
N68      N      0.840460000000     0.661530000000     0.230210000000    -0.172221   
N69      N      0.707730000000     0.608460000000     0.325080000000    -0.171495   
N70      N      0.638550000000     0.573820000000     0.278220000000    -0.171025   
N71      N      0.970680000000     0.725320000000     0.321350000000    -0.170904   
N72      N      0.060630000000     0.772700000000     0.342650000000    -0.170658   
N73      N      0.718970000000     0.959060000000     0.868280000000    -0.171117   
N74      N      0.761330000000     0.052980000000     0.870070000000    -0.17123    
N75      N      0.892010000000     0.295630000000     0.792050000000    -0.170051   
N76      N      0.941200000000     0.388320000000     0.776990000000    -0.170258   
N77      N      0.096240000000     0.694970000000     0.642080000000    -0.170865   
N78      N      0.058660000000     0.625070000000     0.688970000000    -0.170445   
N79      N      0.578280000000     0.627080000000     0.953870000000    -0.171136   
N80      N      0.621670000000     0.721100000000     0.952030000000    -0.171054   
N81      N      0.292210000000     0.047950000000     0.615560000000    -0.171148   
N82      N      0.243560000000     0.954540000000     0.605950000000    -0.17095    
N83      N      0.454730000000     0.393060000000     0.544890000000    -0.171054   
N84      N      0.408540000000     0.299630000000     0.555530000000    -0.170559   
N85      N      0.669870000000     0.789470000000     0.821910000000    -0.170894   
N86      N      0.672420000000     0.808050000000     0.753730000000    -0.16963    
N87      N      0.671100000000     0.871110000000     0.565760000000    -0.169686   
N88      N      0.671720000000     0.890630000000     0.497940000000    -0.17092    
N89      N      0.771910000000     0.720840000000     0.618420000000    -0.170934   
N90      N      0.726620000000     0.769420000000     0.626740000000    -0.170448   
N91      N      0.574210000000     0.959920000000     0.694660000000    -0.170822   
N92      N      0.618740000000     0.910080000000     0.692200000000    -0.170776   
N93      N      0.004440000000     0.530490000000     0.885140000000    -0.170402   
N94      N      0.005510000000     0.557940000000     0.819610000000    -0.171684   
N95      N      0.994710000000     0.454940000000     0.643070000000    -0.170984   
N96      N      0.997950000000     0.480750000000     0.576590000000    -0.170149   
N97      N      0.903390000000     0.609750000000     0.541370000000    -0.171181   
N98      N      0.941330000000     0.574980000000     0.497240000000    -0.171111   
N99      N      0.352630000000     0.129130000000     0.924120000000    -0.171103   
N100     N      0.350560000000     0.144560000000     0.992340000000    -0.169874   
N101     N      0.351150000000     0.205560000000     0.680900000000    -0.16997    
N102     N      0.349670000000     0.227130000000     0.747910000000    -0.171013   
N103     N      0.440500000000     0.080780000000     0.747170000000    -0.170871   
N104     N      0.406430000000     0.114190000000     0.795800000000    -0.170679   
N105     N      0.111260000000     0.390970000000     0.965010000000    -0.171228   
N106     N      0.063040000000     0.436830000000     0.961550000000    -0.170509   
N107     N      0.246290000000     0.288640000000     0.879950000000    -0.17067    
N108     N      0.294680000000     0.242810000000     0.877340000000    -0.170595   
N109     N      0.483240000000     0.474400000000     0.841950000000    -0.169256   
N110     N      0.467930000000     0.456350000000     0.910460000000    -0.170213   
N111     N      0.544620000000     0.538590000000     0.653610000000    -0.169584   
N112     N      0.564460000000     0.561410000000     0.586230000000    -0.170651   
N113     N      0.883080000000     0.229480000000     0.992100000000    -0.170463   
N114     N      0.864840000000     0.213910000000     0.923710000000    -0.169404   
N115     N      0.800120000000     0.148450000000     0.674640000000    -0.169996   
N116     N      0.781810000000     0.127330000000     0.742200000000    -0.170953   
N117     N      0.129410000000     0.343240000000     0.834450000000    -0.170428   
N118     N      0.140870000000     0.341180000000     0.765330000000    -0.169491   
N119     N      0.207510000000     0.341090000000     0.578190000000    -0.169621   
N120     N      0.226710000000     0.338190000000     0.510660000000    -0.170619   
N121     N      0.051390000000     0.291040000000     0.635420000000    -0.170444   
N122     N      0.958720000000     0.249060000000     0.622350000000    -0.170755   
N123     N      0.295210000000     0.392510000000     0.707930000000    -0.170905   
N124     N      0.388940000000     0.438660000000     0.715530000000    -0.170743   
N125     N      0.535970000000     0.019250000000     0.817080000000    -0.170605   
N126     N      0.562090000000     0.019630000000     0.882800000000    -0.171834   
N127     N      0.482280000000     0.021200000000     0.627640000000    -0.17093    
N128     N      0.465860000000     0.019640000000     0.559670000000    -0.171611   
N129     N      0.714060000000     0.120480000000     0.549360000000    -0.170299   
N130     N      0.639470000000     0.081410000000     0.506360000000    -0.170277   
N131     N      0.191680000000     0.847770000000     0.719940000000    -0.171959   
N132     N      0.227600000000     0.886200000000     0.781050000000    -0.172784   
N133     N      0.139030000000     0.796280000000     0.460090000000    -0.172347   
N134     N      0.152870000000     0.808170000000     0.528230000000    -0.171773   
N135     N      0.391490000000     0.958270000000     0.938780000000    -0.170563   
N136     N      0.311770000000     0.914790000000     0.901210000000    -0.170584   
N137     N      0.836390000000     0.671520000000     0.924840000000    -0.171406   
N138     N      0.799910000000     0.671290000000     0.986660000000    -0.171838   
N139     N      0.875230000000     0.659510000000     0.668490000000    -0.17244    
N140     N      0.840460000000     0.661530000000     0.730210000000    -0.172201   
N141     N      0.707730000000     0.608460000000     0.825080000000    -0.171502   
N142     N      0.638550000000     0.573820000000     0.778220000000    -0.171023   
N143     N      0.970680000000     0.725320000000     0.821350000000    -0.170918   
N144     N      0.060630000000     0.772700000000     0.842650000000    -0.170646   
Ni1      Ni     0.836330000000     0.630750000000     0.328940000000     1.00272    
Ni2      Ni     0.842280000000     0.703140000000     0.325940000000     1.00669    
Ni3      Ni     0.191670000000     0.811990000000     0.366920000000     1.00611    
Ni4      Ni     0.181020000000     0.874910000000     0.376130000000     1.00674    
Ni5      Ni     0.512290000000     0.984410000000     0.977380000000     1.0041     
Ni6      Ni     0.519250000000     0.056120000000     0.966310000000     0.998069   
Ni7      Ni     0.167440000000     0.304080000000     0.174810000000     0.996901   
Ni8      Ni     0.179310000000     0.378490000000     0.168300000000     0.998081   
Ni9      Ni     0.842180000000     0.154620000000     0.078330000000     1.00236    
Ni10     Ni     0.834410000000     0.219320000000     0.086930000000     0.992269   
Ni11     Ni     0.517320000000     0.473510000000     0.243950000000     0.994346   
Ni12     Ni     0.509480000000     0.538350000000     0.251310000000     1.00015    
Ni13     Ni     0.209500000000     0.377250000000     0.417870000000     0.99545    
Ni14     Ni     0.148010000000     0.302880000000     0.426480000000     0.997526   
Ni15     Ni     0.387260000000     0.210330000000     0.341300000000     0.995161   
Ni16     Ni     0.314270000000     0.147290000000     0.331420000000     1.00119    
Ni17     Ni     0.037580000000     0.538440000000     0.984010000000     1.00174    
Ni18     Ni     0.966030000000     0.472070000000     0.977410000000     0.998395   
Ni19     Ni     0.709030000000     0.871330000000     0.162810000000     0.998261   
Ni20     Ni     0.635680000000     0.807460000000     0.156490000000     0.997845   
Ni21     Ni     0.869040000000     0.702100000000     0.074710000000     1.00681    
Ni22     Ni     0.804540000000     0.629010000000     0.081100000000     1.00237    
Ni23     Ni     0.541340000000     0.056530000000     0.219530000000     1.00098    
Ni24     Ni     0.475110000000     0.984640000000     0.225460000000     1.00453    
Ni25     Ni     0.314540000000     0.170850000000     0.083420000000     1.00286    
Ni26     Ni     0.386780000000     0.177820000000     0.090030000000     0.996398   
Ni27     Ni     0.484720000000     0.514230000000     0.002790000000     1.00092    
Ni28     Ni     0.547890000000     0.504300000000     0.993810000000     0.993801   
Ni29     Ni     0.137800000000     0.828940000000     0.126410000000     1.00812    
Ni30     Ni     0.202710000000     0.820790000000     0.122380000000     1.00558    
Ni31     Ni     0.963690000000     0.502150000000     0.227110000000     0.99629    
Ni32     Ni     0.035670000000     0.509350000000     0.236080000000     1.00027    
Ni33     Ni     0.794210000000     0.179340000000     0.335970000000     0.990738   
Ni34     Ni     0.857820000000     0.169950000000     0.327690000000     1.0043     
Ni35     Ni     0.633130000000     0.832720000000     0.405510000000     0.99823    
Ni36     Ni     0.707890000000     0.847190000000     0.414320000000     0.999548   
Ni37     Ni     0.836330000000     0.630750000000     0.828940000000     1.00277    
Ni38     Ni     0.842270000000     0.703140000000     0.825940000000     1.00672    
Ni39     Ni     0.191660000000     0.811990000000     0.866920000000     1.00592    
Ni40     Ni     0.181020000000     0.874900000000     0.876130000000     1.0066     
Ni41     Ni     0.512290000000     0.984420000000     0.477380000000     1.00409    
Ni42     Ni     0.519250000000     0.056120000000     0.466310000000     0.997976   
Ni43     Ni     0.167440000000     0.304080000000     0.674810000000     0.996969   
Ni44     Ni     0.179300000000     0.378490000000     0.668300000000     0.998149   
Ni45     Ni     0.842180000000     0.154620000000     0.578320000000     1.00243    
Ni46     Ni     0.834400000000     0.219320000000     0.586930000000     0.99226    
Ni47     Ni     0.517320000000     0.473510000000     0.743950000000     0.994321   
Ni48     Ni     0.509480000000     0.538350000000     0.751310000000     1.00014    
Ni49     Ni     0.209500000000     0.377260000000     0.917870000000     0.995653   
Ni50     Ni     0.148010000000     0.302880000000     0.926480000000     0.997558   
Ni51     Ni     0.387260000000     0.210330000000     0.841300000000     0.995179   
Ni52     Ni     0.314270000000     0.147290000000     0.831420000000     1.00118    
Ni53     Ni     0.037580000000     0.538440000000     0.484010000000     1.00177    
Ni54     Ni     0.966030000000     0.472070000000     0.477410000000     0.9984     
Ni55     Ni     0.709030000000     0.871320000000     0.662810000000     0.998255   
Ni56     Ni     0.635680000000     0.807460000000     0.656480000000     0.997726   
Ni57     Ni     0.869040000000     0.702110000000     0.574710000000     1.00685    
Ni58     Ni     0.804540000000     0.629010000000     0.581100000000     1.00227    
Ni59     Ni     0.541340000000     0.056530000000     0.719530000000     1.00106    
Ni60     Ni     0.475110000000     0.984640000000     0.725460000000     1.00438    
Ni61     Ni     0.314540000000     0.170850000000     0.583420000000     1.00271    
Ni62     Ni     0.386780000000     0.177820000000     0.590030000000     0.996184   
Ni63     Ni     0.484720000000     0.514230000000     0.502790000000     1.00081    
Ni64     Ni     0.547890000000     0.504300000000     0.493810000000     0.99384    
Ni65     Ni     0.137800000000     0.828940000000     0.626410000000     1.00817    
Ni66     Ni     0.202710000000     0.820790000000     0.622380000000     1.00543    
Ni67     Ni     0.963690000000     0.502140000000     0.727110000000     0.99626    
Ni68     Ni     0.035670000000     0.509350000000     0.736080000000     1.00038    
Ni69     Ni     0.794210000000     0.179340000000     0.835970000000     0.990802   
Ni70     Ni     0.857820000000     0.169950000000     0.827690000000     1.00432    
Ni71     Ni     0.633130000000     0.832720000000     0.905510000000     0.998167   
Ni72     Ni     0.707890000000     0.847190000000     0.914320000000     0.999576   
O1       O      0.835320000000     0.629680000000     0.281300000000    -0.454264   
O2       O      0.836310000000     0.635920000000     0.376470000000    -0.45279    
O3       O      0.772570000000     0.605160000000     0.329000000000    -0.455172   
O4       O      0.901210000000     0.661510000000     0.328050000000    -0.448065   
O5       O      0.905950000000     0.728730000000     0.325400000000    -0.456046   
O6       O      0.777580000000     0.672490000000     0.326130000000    -0.450903   
O7       O      0.842930000000     0.704020000000     0.373690000000    -0.453017   
O8       O      0.842280000000     0.697940000000     0.278470000000    -0.454589   
O9       O      0.171020000000     0.792750000000     0.411200000000    -0.456832   
O10      O      0.212460000000     0.835700000000     0.323260000000    -0.456184   
O11      O      0.251670000000     0.848390000000     0.383180000000    -0.453683   
O12      O      0.130140000000     0.779400000000     0.351630000000    -0.448598   
O13      O      0.121290000000     0.838850000000     0.359890000000    -0.456663   
O14      O      0.242310000000     0.907500000000     0.391500000000    -0.450253   
O15      O      0.201360000000     0.893840000000     0.331570000000    -0.454482   
O16      O      0.159780000000     0.850710000000     0.419810000000    -0.45318    
O17      O      0.534840000000     0.986230000000     0.433410000000    -0.452001   
O18      O      0.488560000000     0.986640000000     0.020260000000    -0.451186   
O19      O      0.452930000000     0.957170000000     0.459710000000    -0.45553    
O20      O      0.572920000000     0.016620000000     0.994260000000    -0.44957    
O21      O      0.578830000000     0.083350000000     0.984200000000    -0.451644   
O22      O      0.458390000000     0.023680000000     0.449500000000    -0.447094   
O23      O      0.496410000000     0.054250000000     0.010070000000    -0.452799   
O24      O      0.542720000000     0.053890000000     0.423380000000    -0.451448   
O25      O      0.147990000000     0.304980000000     0.219560000000    -0.448958   
O26      O      0.186690000000     0.307470000000     0.129580000000    -0.450556   
O27      O      0.228740000000     0.331240000000     0.190360000000    -0.447229   
O28      O      0.107620000000     0.282310000000     0.158730000000    -0.4524     
O29      O      0.118230000000     0.351650000000     0.152810000000    -0.449254   
O30      O      0.238890000000     0.400390000000     0.184320000000    -0.455672   
O31      O      0.198840000000     0.377390000000     0.123440000000    -0.446864   
O32      O      0.160160000000     0.374950000000     0.213760000000    -0.44812    
O33      O      0.864570000000     0.177860000000     0.034440000000    -0.448219   
O34      O      0.820970000000     0.136650000000     0.122980000000    -0.450714   
O35      O      0.781270000000     0.124240000000     0.062060000000    -0.449734   
O36      O      0.901530000000     0.188420000000     0.095780000000    -0.455659   
O37      O      0.895240000000     0.249400000000     0.103870000000    -0.44593    
O38      O      0.774530000000     0.185020000000     0.069700000000    -0.450428   
O39      O      0.812380000000     0.196380000000     0.130810000000    -0.448237   
O40      O      0.856190000000     0.237680000000     0.042370000000    -0.449129   
O41      O      0.535090000000     0.493070000000     0.198660000000    -0.446428   
O42      O      0.500330000000     0.459050000000     0.289910000000    -0.447185   
O43      O      0.455150000000     0.441420000000     0.230310000000    -0.447911   
O44      O      0.578260000000     0.509410000000     0.258020000000    -0.454331   
O45      O      0.571660000000     0.570400000000     0.264740000000    -0.449453   
O46      O      0.448580000000     0.502410000000     0.237170000000    -0.454971   
O47      O      0.491840000000     0.519000000000     0.296570000000    -0.448234   
O48      O      0.526480000000     0.552930000000     0.205480000000    -0.44946    
O49      O      0.182880000000     0.376770000000     0.375470000000    -0.447618   
O50      O      0.231350000000     0.373450000000     0.461020000000    -0.449914   
O51      O      0.241350000000     0.350010000000     0.397930000000    -0.446997   
O52      O      0.174100000000     0.399200000000     0.438660000000    -0.453149   
O53      O      0.116160000000     0.329950000000     0.446430000000    -0.449019   
O54      O      0.183350000000     0.280840000000     0.405820000000    -0.453817   
O55      O      0.174550000000     0.303550000000     0.468950000000    -0.447957   
O56      O      0.126110000000     0.306850000000     0.383320000000    -0.449402   
O57      O      0.386200000000     0.183570000000     0.383740000000    -0.448423   
O58      O      0.384090000000     0.232110000000     0.297940000000    -0.450061   
O59      O      0.357710000000     0.240460000000     0.360460000000    -0.446861   
O60      O      0.411640000000     0.176510000000     0.321350000000    -0.45282    
O61      O      0.343720000000     0.117310000000     0.312160000000    -0.449253   
O62      O      0.289910000000     0.180920000000     0.351550000000    -0.454486   
O63      O      0.315270000000     0.174030000000     0.289010000000    -0.449576   
O64      O      0.317580000000     0.125260000000     0.374630000000    -0.451162   
O65      O      0.036800000000     0.548350000000     0.437020000000    -0.450361   
O66      O      0.034110000000     0.523440000000     0.030540000000    -0.449204   
O67      O      0.064400000000     0.502430000000     0.475150000000    -0.455714   
O68      O      0.005830000000     0.570600000000     0.992100000000    -0.450518   
O69      O      0.939260000000     0.508360000000     0.985950000000    -0.453961   
O70      O      0.998000000000     0.439940000000     0.469190000000    -0.44741    
O71      O      0.966590000000     0.462250000000     0.024420000000    -0.450113   
O72      O      0.969400000000     0.486960000000     0.430990000000    -0.450084   
O73      O      0.705370000000     0.885690000000     0.117060000000    -0.44926    
O74      O      0.708130000000     0.852090000000     0.208040000000    -0.44784    
O75      O      0.732510000000     0.834200000000     0.148100000000    -0.454548   
O76      O      0.680600000000     0.904760000000     0.177030000000    -0.449431   
O77      O      0.612290000000     0.844750000000     0.171330000000    -0.453217   
O78      O      0.664330000000     0.774110000000     0.142130000000    -0.44734    
O79      O      0.639190000000     0.793000000000     0.202120000000    -0.450424   
O80      O      0.636340000000     0.826670000000     0.111400000000    -0.449253   
O81      O      0.886340000000     0.696020000000     0.118730000000    -0.45613    
O82      O      0.847090000000     0.703910000000     0.031120000000    -0.453696   
O83      O      0.834370000000     0.726300000000     0.093320000000    -0.454996   
O84      O      0.899850000000     0.672660000000     0.057000000000    -0.450674   
O85      O      0.839280000000     0.604700000000     0.062920000000    -0.455183   
O86      O      0.773680000000     0.658370000000     0.099060000000    -0.449116   
O87      O      0.787560000000     0.635060000000     0.036800000000    -0.452931   
O88      O      0.826620000000     0.627340000000     0.124680000000    -0.453074   
O89      O      0.552960000000     0.053040000000     0.265750000000    -0.452862   
O90      O      0.524880000000     0.055850000000     0.173810000000    -0.452038   
O91      O      0.505940000000     0.083190000000     0.231640000000    -0.453267   
O92      O      0.572520000000     0.024700000000     0.207680000000    -0.448107   
O93      O      0.510260000000     0.957970000000     0.213280000000    -0.455818   
O94      O      0.443780000000     0.016300000000     0.236870000000    -0.450399   
O95      O      0.463750000000     0.988030000000     0.179160000000    -0.453125   
O96      O      0.491650000000     0.985420000000     0.271300000000    -0.450875   
O97      O      0.315420000000     0.153300000000     0.038050000000    -0.449784   
O98      O      0.317890000000     0.187780000000     0.129310000000    -0.450923   
O99      O      0.345110000000     0.233220000000     0.070090000000    -0.449863   
O100     O      0.289020000000     0.109580000000     0.097170000000    -0.455748   
O101     O      0.356120000000     0.115190000000     0.103050000000    -0.448097   
O102     O      0.412340000000     0.239220000000     0.076290000000    -0.453275   
O103     O      0.385800000000     0.195260000000     0.135470000000    -0.448186   
O104     O      0.383540000000     0.161220000000     0.044050000000    -0.449874   
O105     O      0.511600000000     0.541860000000     0.044800000000    -0.447832   
O106     O      0.462690000000     0.487040000000     0.459960000000    -0.449073   
O107     O      0.455490000000     0.455900000000     0.023750000000    -0.450395   
O108     O      0.517560000000     0.571230000000     0.481240000000    -0.455941   
O109     O      0.577270000000     0.563070000000     0.473070000000    -0.446704   
O110     O      0.514820000000     0.447130000000     0.015510000000    -0.452377   
O111     O      0.521130000000     0.476750000000     0.451750000000    -0.44693    
O112     O      0.569880000000     0.531290000000     0.036600000000    -0.449293   
O113     O      0.150250000000     0.839830000000     0.173050000000    -0.454656   
O114     O      0.130540000000     0.819010000000     0.079430000000    -0.455795   
O115     O      0.103330000000     0.764940000000     0.134390000000    -0.450035   
O116     O      0.176130000000     0.891700000000     0.117990000000    -0.456157   
O117     O      0.237120000000     0.884820000000     0.114060000000    -0.448807   
O118     O      0.164240000000     0.757870000000     0.130970000000    -0.453767   
O119     O      0.190350000000     0.809950000000     0.075820000000    -0.455472   
O120     O      0.210450000000     0.831490000000     0.169220000000    -0.456609   
O121     O      0.962250000000     0.474840000000     0.184860000000    -0.44881    
O122     O      0.969440000000     0.528870000000     0.270080000000    -0.451207   
O123     O      0.994740000000     0.561160000000     0.206900000000    -0.447631   
O124     O      0.937690000000     0.444440000000     0.248290000000    -0.451787   
O125     O      0.004630000000     0.450430000000     0.256450000000    -0.448053   
O126     O      0.061630000000     0.567120000000     0.215200000000    -0.453509   
O127     O      0.037250000000     0.536780000000     0.278210000000    -0.450433   
O128     O      0.030050000000     0.482800000000     0.193060000000    -0.451595   
O129     O      0.775140000000     0.156400000000     0.291850000000    -0.450577   
O130     O      0.817590000000     0.202280000000     0.379610000000    -0.448043   
O131     O      0.829180000000     0.238740000000     0.317510000000    -0.449191   
O132     O      0.763280000000     0.118570000000     0.353520000000    -0.445321   
O133     O      0.823550000000     0.111170000000     0.346050000000    -0.457809   
O134     O      0.888690000000     0.230140000000     0.309880000000    -0.450803   
O135     O      0.876520000000     0.192600000000     0.372070000000    -0.449284   
O136     O      0.833730000000     0.146160000000     0.284250000000    -0.448696   
O137     O      0.636250000000     0.858140000000     0.448740000000    -0.449575   
O138     O      0.634670000000     0.807220000000     0.363070000000    -0.448201   
O139     O      0.612430000000     0.775440000000     0.426050000000    -0.455199   
O140     O      0.658880000000     0.891740000000     0.385710000000    -0.44893    
O141     O      0.728470000000     0.904520000000     0.393760000000    -0.454561   
O142     O      0.681960000000     0.788100000000     0.434180000000    -0.448471   
O143     O      0.704890000000     0.821800000000     0.371210000000    -0.451386   
O144     O      0.706530000000     0.872770000000     0.456680000000    -0.449455   
O145     O      0.835320000000     0.629680000000     0.781300000000    -0.454256   
O146     O      0.836310000000     0.635930000000     0.876470000000    -0.452934   
O147     O      0.772570000000     0.605160000000     0.829000000000    -0.455189   
O148     O      0.901210000000     0.661510000000     0.828050000000    -0.447993   
O149     O      0.905950000000     0.728730000000     0.825400000000    -0.456059   
O150     O      0.777580000000     0.672490000000     0.826130000000    -0.450999   
O151     O      0.842930000000     0.704020000000     0.873690000000    -0.453079   
O152     O      0.842280000000     0.697950000000     0.778470000000    -0.454429   
O153     O      0.171020000000     0.792750000000     0.911200000000    -0.456812   
O154     O      0.212460000000     0.835700000000     0.823260000000    -0.456065   
O155     O      0.251670000000     0.848390000000     0.883180000000    -0.453571   
O156     O      0.130140000000     0.779400000000     0.851630000000    -0.448637   
O157     O      0.121290000000     0.838850000000     0.859890000000    -0.456644   
O158     O      0.242310000000     0.907500000000     0.891500000000    -0.450299   
O159     O      0.201360000000     0.893840000000     0.831570000000    -0.454332   
O160     O      0.159780000000     0.850710000000     0.919810000000    -0.453164   
O161     O      0.534840000000     0.986230000000     0.933410000000    -0.451939   
O162     O      0.488560000000     0.986640000000     0.520260000000    -0.451127   
O163     O      0.452930000000     0.957170000000     0.959710000000    -0.45556    
O164     O      0.572920000000     0.016620000000     0.494260000000    -0.449539   
O165     O      0.578830000000     0.083350000000     0.484200000000    -0.451622   
O166     O      0.458390000000     0.023680000000     0.949500000000    -0.447116   
O167     O      0.496410000000     0.054250000000     0.510070000000    -0.452796   
O168     O      0.542720000000     0.053890000000     0.923380000000    -0.451463   
O169     O      0.147990000000     0.304980000000     0.719560000000    -0.448973   
O170     O      0.186690000000     0.307470000000     0.629580000000    -0.450561   
O171     O      0.228740000000     0.331240000000     0.690360000000    -0.447229   
O172     O      0.107620000000     0.282310000000     0.658730000000    -0.452469   
O173     O      0.118230000000     0.351640000000     0.652810000000    -0.44949    
O174     O      0.238890000000     0.400390000000     0.684320000000    -0.455608   
O175     O      0.198840000000     0.377390000000     0.623440000000    -0.446847   
O176     O      0.160160000000     0.374950000000     0.713760000000    -0.44817    
O177     O      0.864570000000     0.177860000000     0.534440000000    -0.448245   
O178     O      0.820970000000     0.136650000000     0.622980000000    -0.450625   
O179     O      0.781270000000     0.124240000000     0.562060000000    -0.449806   
O180     O      0.901530000000     0.188420000000     0.595780000000    -0.455674   
O181     O      0.895250000000     0.249400000000     0.603870000000    -0.446008   
O182     O      0.774530000000     0.185020000000     0.569700000000    -0.450525   
O183     O      0.812380000000     0.196380000000     0.630810000000    -0.448259   
O184     O      0.856190000000     0.237680000000     0.542370000000    -0.449111   
O185     O      0.535090000000     0.493070000000     0.698660000000    -0.446509   
O186     O      0.500330000000     0.459050000000     0.789910000000    -0.447062   
O187     O      0.455150000000     0.441420000000     0.730310000000    -0.447907   
O188     O      0.578260000000     0.509410000000     0.758020000000    -0.454327   
O189     O      0.571660000000     0.570400000000     0.764740000000    -0.449449   
O190     O      0.448580000000     0.502410000000     0.737170000000    -0.454968   
O191     O      0.491840000000     0.519010000000     0.796570000000    -0.448188   
O192     O      0.526480000000     0.552930000000     0.705480000000    -0.449387   
O193     O      0.182880000000     0.376770000000     0.875470000000    -0.447688   
O194     O      0.231350000000     0.373450000000     0.961010000000    -0.44994    
O195     O      0.241350000000     0.350010000000     0.897930000000    -0.44696    
O196     O      0.174100000000     0.399200000000     0.938660000000    -0.453252   
O197     O      0.116160000000     0.329950000000     0.946430000000    -0.449028   
O198     O      0.183350000000     0.280840000000     0.905820000000    -0.453816   
O199     O      0.174550000000     0.303550000000     0.968950000000    -0.447931   
O200     O      0.126110000000     0.306850000000     0.883320000000    -0.449416   
O201     O      0.386200000000     0.183570000000     0.883740000000    -0.448427   
O202     O      0.384090000000     0.232110000000     0.797940000000    -0.450062   
O203     O      0.357710000000     0.240460000000     0.860460000000    -0.446962   
O204     O      0.411640000000     0.176510000000     0.821350000000    -0.452823   
O205     O      0.343720000000     0.117310000000     0.812160000000    -0.449248   
O206     O      0.289910000000     0.180920000000     0.851550000000    -0.454489   
O207     O      0.315270000000     0.174030000000     0.789010000000    -0.449573   
O208     O      0.317580000000     0.125260000000     0.874630000000    -0.45116    
O209     O      0.036800000000     0.548350000000     0.937020000000    -0.450356   
O210     O      0.034110000000     0.523440000000     0.530540000000    -0.449174   
O211     O      0.064400000000     0.502430000000     0.975150000000    -0.455722   
O212     O      0.005830000000     0.570600000000     0.492100000000    -0.450455   
O213     O      0.939250000000     0.508350000000     0.485950000000    -0.45382    
O214     O      0.998000000000     0.439940000000     0.969190000000    -0.447419   
O215     O      0.966590000000     0.462250000000     0.524420000000    -0.450061   
O216     O      0.969400000000     0.486960000000     0.930990000000    -0.45008    
O217     O      0.705370000000     0.885690000000     0.617060000000    -0.449237   
O218     O      0.708130000000     0.852090000000     0.708040000000    -0.447834   
O219     O      0.732510000000     0.834200000000     0.648100000000    -0.454536   
O220     O      0.680600000000     0.904760000000     0.677030000000    -0.449311   
O221     O      0.612290000000     0.844750000000     0.671330000000    -0.453072   
O222     O      0.664330000000     0.774110000000     0.642130000000    -0.44734    
O223     O      0.639190000000     0.792990000000     0.702120000000    -0.450241   
O224     O      0.636340000000     0.826670000000     0.611400000000    -0.449341   
O225     O      0.886340000000     0.696020000000     0.618730000000    -0.456147   
O226     O      0.847100000000     0.703920000000     0.531120000000    -0.453612   
O227     O      0.834370000000     0.726300000000     0.593320000000    -0.455179   
O228     O      0.899850000000     0.672660000000     0.557000000000    -0.450632   
O229     O      0.839280000000     0.604690000000     0.562920000000    -0.455153   
O230     O      0.773680000000     0.658370000000     0.599060000000    -0.449134   
O231     O      0.787560000000     0.635060000000     0.536800000000    -0.452879   
O232     O      0.826620000000     0.627340000000     0.624680000000    -0.453086   
O233     O      0.552950000000     0.053040000000     0.765750000000    -0.452942   
O234     O      0.524880000000     0.055850000000     0.673810000000    -0.45208    
O235     O      0.505940000000     0.083190000000     0.731640000000    -0.453265   
O236     O      0.572520000000     0.024700000000     0.707680000000    -0.448135   
O237     O      0.510260000000     0.957960000000     0.713280000000    -0.455723   
O238     O      0.443780000000     0.016300000000     0.736870000000    -0.450372   
O239     O      0.463750000000     0.988030000000     0.679160000000    -0.453139   
O240     O      0.491650000000     0.985420000000     0.771300000000    -0.450875   
O241     O      0.315420000000     0.153300000000     0.538050000000    -0.44977    
O242     O      0.317890000000     0.187780000000     0.629310000000    -0.450923   
O243     O      0.345110000000     0.233230000000     0.570090000000    -0.44976    
O244     O      0.289020000000     0.109580000000     0.597170000000    -0.455673   
O245     O      0.356130000000     0.115190000000     0.603050000000    -0.44793    
O246     O      0.412340000000     0.239220000000     0.576290000000    -0.45325    
O247     O      0.385800000000     0.195260000000     0.635480000000    -0.448107   
O248     O      0.383540000000     0.161220000000     0.544050000000    -0.44984    
O249     O      0.511600000000     0.541860000000     0.544800000000    -0.447829   
O250     O      0.462690000000     0.487040000000     0.959960000000    -0.449176   
O251     O      0.455500000000     0.455900000000     0.523750000000    -0.450501   
O252     O      0.517560000000     0.571230000000     0.981240000000    -0.455977   
O253     O      0.577260000000     0.563060000000     0.973070000000    -0.446786   
O254     O      0.514820000000     0.447130000000     0.515510000000    -0.452397   
O255     O      0.521130000000     0.476750000000     0.951750000000    -0.446899   
O256     O      0.569880000000     0.531290000000     0.536600000000    -0.44932    
O257     O      0.150250000000     0.839830000000     0.673050000000    -0.454696   
O258     O      0.130540000000     0.819010000000     0.579430000000    -0.455797   
O259     O      0.103330000000     0.764940000000     0.634390000000    -0.45003    
O260     O      0.176140000000     0.891700000000     0.617990000000    -0.456326   
O261     O      0.237120000000     0.884820000000     0.614060000000    -0.448964   
O262     O      0.164240000000     0.757870000000     0.630970000000    -0.453734   
O263     O      0.190350000000     0.809950000000     0.575820000000    -0.455441   
O264     O      0.210450000000     0.831490000000     0.669230000000    -0.456565   
O265     O      0.962250000000     0.474840000000     0.684860000000    -0.448754   
O266     O      0.969440000000     0.528870000000     0.770080000000    -0.451209   
O267     O      0.994740000000     0.561160000000     0.706900000000    -0.44755    
O268     O      0.937690000000     0.444440000000     0.748290000000    -0.451854   
O269     O      0.004630000000     0.450440000000     0.756450000000    -0.448157   
O270     O      0.061630000000     0.567120000000     0.715200000000    -0.453522   
O271     O      0.037240000000     0.536780000000     0.778210000000    -0.450501   
O272     O      0.030050000000     0.482800000000     0.693060000000    -0.451687   
O273     O      0.775150000000     0.156400000000     0.791850000000    -0.450729   
O274     O      0.817590000000     0.202280000000     0.879610000000    -0.448056   
O275     O      0.829180000000     0.238740000000     0.817510000000    -0.449199   
O276     O      0.763280000000     0.118570000000     0.853520000000    -0.44533    
O277     O      0.823550000000     0.111170000000     0.846050000000    -0.457811   
O278     O      0.888690000000     0.230140000000     0.809880000000    -0.450805   
O279     O      0.876520000000     0.192600000000     0.872070000000    -0.449289   
O280     O      0.833730000000     0.146160000000     0.784250000000    -0.448741   
O281     O      0.636250000000     0.858140000000     0.948740000000    -0.449592   
O282     O      0.634670000000     0.807210000000     0.863070000000    -0.448221   
O283     O      0.612430000000     0.775440000000     0.926050000000    -0.455207   
O284     O      0.658880000000     0.891740000000     0.885710000000    -0.448955   
O285     O      0.728470000000     0.904520000000     0.893760000000    -0.454618   
O286     O      0.681960000000     0.788100000000     0.934180000000    -0.448491   
O287     O      0.704890000000     0.821800000000     0.871210000000    -0.451413   
O288     O      0.706530000000     0.872770000000     0.956680000000    -0.449483   


