data_structure

_audit_creation_method RASPA-1.0
_audit_creation_date 2023-6-5
_audit_author_name 'Poobodin Mano'

_cell_length_a    33.999
_cell_length_b    33.7397
_cell_length_c    40.4487
_cell_angle_alpha 89.9805
_cell_angle_beta  90.0195
_cell_angle_gamma 119.982
_cell_volume      40190.3

_symmetry_cell_setting          triclinic
_symmetry_space_group_name_Hall 'P 1'
_symmetry_space_group_name_H-M  'P 1'
_symmetry_Int_Tables_number     1

_symmetry_equiv_pos_as_xyz 'x,y,z'

loop_
_atom_site_label
_atom_site_type_symbol
_atom_site_fract_x
_atom_site_fract_y
_atom_site_fract_z
_atom_site_charge
C1       C      0.859760000000     0.679850000000     0.255690000000     0.46149    
C2       C      0.820210000000     0.678430000000     0.377460000000     0.450915   
C3       C      0.755930000000     0.639710000000     0.300370000000     0.451371   
C4       C      0.924000000000     0.718750000000     0.332230000000     0.456844   
C5       C      0.159870000000     0.830340000000     0.463410000000     0.455249   
C6       C      0.193580000000     0.867970000000     0.340480000000     0.448863   
C7       C      0.261810000000     0.896420000000     0.415640000000     0.450393   
C8       C      0.092310000000     0.802400000000     0.388780000000     0.432158   
C9       C      0.529930000000     0.014320000000     0.429170000000     0.456292   
C10      C      0.494200000000     0.016580000000     0.051620000000     0.447915   
C11      C      0.426940000000     0.977990000000     0.475620000000     0.425928   
C12      C      0.595430000000     0.051860000000     0.004830000000     0.455584   
C13      C      0.174860000000     0.345960000000     0.180820000000     0.432093   
C14      C      0.201950000000     0.349640000000     0.056700000000     0.429494   
C15      C      0.274340000000     0.387940000000     0.129960000000     0.45138    
C16      C      0.103320000000     0.307170000000     0.108420000000     0.428591   
C17      C      0.859260000000     0.191620000000     0.029760000000     0.425969   
C18      C      0.813460000000     0.145520000000     0.150170000000     0.457042   
C19      C      0.753290000000     0.124960000000     0.072060000000     0.430075   
C20      C      0.919750000000     0.213030000000     0.107620000000     0.453486   
C21      C      0.538180000000     0.533060000000     0.152010000000     0.450326   
C22      C      0.496110000000     0.490420000000     0.273360000000     0.458552   
C23      C      0.433910000000     0.465720000000     0.195260000000     0.432829   
C24      C      0.600490000000     0.558500000000     0.230120000000     0.42904    
C25      C      0.202950000000     0.350200000000     0.424150000000     0.457486   
C26      C      0.144770000000     0.344660000000     0.307160000000     0.46391    
C27      C      0.125990000000     0.382160000000     0.385450000000     0.46112    
C28      C      0.221250000000     0.313110000000     0.346020000000     0.45374    
C29      C      0.354000000000     0.155410000000     0.381830000000     0.429128   
C30      C      0.350230000000     0.215970000000     0.266800000000     0.454414   
C31      C      0.314770000000     0.228450000000     0.348010000000     0.430303   
C32      C      0.389090000000     0.142650000000     0.299200000000     0.455488   
C33      C      0.003320000000     0.472450000000     0.030480000000     0.459064   
C34      C      0.006600000000     0.533080000000     0.414390000000     0.455463   
C35      C      0.966300000000     0.546940000000     0.993050000000     0.452938   
C36      C      0.042830000000     0.459190000000     0.451790000000     0.434056   
C37      C      0.689660000000     0.872650000000     0.124500000000     0.45498    
C38      C      0.691900000000     0.816410000000     0.241040000000     0.434482   
C39      C      0.726170000000     0.798200000000     0.160850000000     0.456628   
C40      C      0.654840000000     0.889600000000     0.204780000000     0.428827   
C41      C      0.870270000000     0.676240000000     0.125090000000     0.430785   
C42      C      0.812470000000     0.677860000000     0.009070000000     0.429037   
C43      C      0.799220000000     0.716450000000     0.088710000000     0.429759   
C44      C      0.883740000000     0.637180000000     0.046400000000     0.429083   
C45      C      0.549920000000     0.012670000000     0.299480000000     0.429388   
C46      C      0.491960000000     0.020070000000     0.184440000000     0.427791   
C47      C      0.477740000000     0.052280000000     0.267500000000     0.430555   
C48      C      0.565490000000     0.980920000000     0.217260000000     0.453846   
C49      C      0.352890000000     0.169830000000     0.013080000000     0.450269   
C50      C      0.352150000000     0.206460000000     0.135550000000     0.426886   
C51      C      0.392950000000     0.273430000000     0.060150000000     0.451638   
C52      C      0.311950000000     0.103370000000     0.089320000000     0.428597   
C53      C      0.545980000000     0.540730000000     0.019860000000     0.426048   
C54      C      0.486540000000     0.475270000000     0.404910000000     0.429144   
C55      C      0.471660000000     0.427930000000     0.987800000000     0.428291   
C56      C      0.561010000000     0.587670000000     0.437320000000     0.454189   
C57      C      0.203990000000     0.879810000000     0.208280000000     0.425726   
C58      C      0.144360000000     0.810470000000     0.094190000000     0.429163   
C59      C      0.129120000000     0.766690000000     0.178800000000     0.454156   
C60      C      0.218790000000     0.922850000000     0.123030000000     0.452791   
C61      C      0.003430000000     0.481270000000     0.161410000000     0.429102   
C62      C      0.008080000000     0.519580000000     0.283780000000     0.42816    
C63      C      0.041630000000     0.584810000000     0.206940000000     0.42818    
C64      C      0.970480000000     0.416270000000     0.238740000000     0.452624   
C65      C      0.836290000000     0.165290000000     0.281850000000     0.426987   
C66      C      0.885960000000     0.219320000000     0.400460000000     0.461712   
C67      C      0.904320000000     0.273630000000     0.319620000000     0.433279   
C68      C      0.817180000000     0.109410000000     0.362790000000     0.450917   
C69      C      0.691150000000     0.866090000000     0.492710000000     0.429853   
C70      C      0.693620000000     0.846190000000     0.367990000000     0.456562   
C71      C      0.652170000000     0.769830000000     0.437560000000     0.429381   
C72      C      0.732530000000     0.943280000000     0.422530000000     0.430108   
C73      C      0.730210000000     0.015080000000     0.412600000000    -0.0158545  
C74      C      0.804220000000     0.016790000000     0.415760000000    -0.100658   
C75      C      0.744610000000     0.041340000000     0.379660000000    -0.0070913  
C76      C      0.817740000000     0.039210000000     0.381770000000     0.323737   
C77      C      0.901220000000     0.340310000000     0.297420000000    -0.0168807  
C78      C      0.974010000000     0.338410000000     0.294940000000    -0.102701   
C79      C      0.903090000000     0.347170000000     0.260010000000    -0.00531656 
C80      C      0.977160000000     0.348790000000     0.257700000000     0.324548   
C81      C      0.110560000000     0.655800000000     0.190260000000    -0.0169454  
C82      C      0.034330000000     0.651580000000     0.189360000000    -0.100303   
C83      C      0.131110000000     0.702570000000     0.206290000000    -0.00349857 
C84      C      0.057270000000     0.701310000000     0.202170000000     0.32251    
C85      C      0.654630000000     0.697690000000     0.444690000000    -0.0183997  
C86      C      0.579840000000     0.696640000000     0.441620000000    -0.106869   
C87      C      0.634710000000     0.655440000000     0.421840000000    -0.00643786 
C88      C      0.563420000000     0.658310000000     0.416340000000     0.328697   
C89      C      0.314820000000     0.035230000000     0.109330000000    -0.0190097  
C90      C      0.240390000000     0.034870000000     0.105570000000    -0.10619    
C91      C      0.290090000000     0.984790000000     0.098340000000    -0.00454905 
C92      C      0.218110000000     0.986510000000     0.091960000000     0.327575   
C93      C      0.399840000000     0.363250000000     0.010080000000    -0.0187227  
C94      C      0.472400000000     0.360110000000     0.010000000000    -0.106596   
C95      C      0.390200000000     0.343680000000     0.045420000000    -0.00492177 
C96      C      0.464460000000     0.345840000000     0.046210000000     0.328847   
C97      C      0.649810000000     0.781470000000     0.292250000000    -0.0189983  
C98      C      0.734150000000     0.821360000000     0.291880000000    -0.103172   
C99      C      0.650760000000     0.817470000000     0.315970000000    -0.00276313 
C100     C      0.736780000000     0.857640000000     0.315720000000     0.327668   
C101     C      0.646130000000     0.846670000000     0.043890000000    -0.0194064  
C102     C      0.732530000000     0.888670000000     0.045420000000    -0.102774   
C103     C      0.646740000000     0.872730000000     0.075030000000    -0.00159967 
C104     C      0.731100000000     0.916850000000     0.074440000000     0.326472   
C105     C      0.801040000000     0.787720000000     0.105840000000    -0.0160129  
C106     C      0.728110000000     0.712640000000     0.108430000000    -0.101282   
C107     C      0.794630000000     0.797230000000     0.141710000000    -0.005991   
C108     C      0.720340000000     0.723790000000     0.143740000000     0.323623   
C109     C      0.585530000000     0.890490000000     0.221670000000    -0.0163057  
C110     C      0.660480000000     0.963590000000     0.220550000000    -0.102041   
C111     C      0.565620000000     0.911470000000     0.198590000000    -0.00355329 
C112     C      0.638800000000     0.985870000000     0.199610000000     0.323696   
C113     C      0.964140000000     0.505550000000     0.334920000000    -0.0181244  
C114     C      0.050620000000     0.546690000000     0.336010000000    -0.102335   
C115     C      0.965550000000     0.534410000000     0.364410000000    -0.00210568 
C116     C      0.049830000000     0.576170000000     0.364510000000     0.325239   
C117     C      0.960620000000     0.455900000000     0.109220000000    -0.0164515  
C118     C      0.047200000000     0.494780000000     0.110280000000    -0.106919   
C119     C      0.960540000000     0.428090000000     0.079270000000    -0.00474546 
C120     C      0.044610000000     0.467080000000     0.079740000000     0.328858   
C121     C      0.956460000000     0.639880000000     0.033390000000    -0.0179483  
C122     C      0.883640000000     0.564930000000     0.037400000000    -0.103992   
C123     C      0.970830000000     0.621320000000     0.003920000000    -0.00520091 
C124     C      0.895470000000     0.548310000000     0.006070000000     0.325688   
C125     C      0.312320000000     0.113010000000     0.431790000000    -0.0221688  
C126     C      0.396610000000     0.155590000000     0.431620000000    -0.10039    
C127     C      0.311390000000     0.141940000000     0.460670000000    -0.000800055
C128     C      0.397880000000     0.183380000000     0.461900000000     0.323458   
C129     C      0.306900000000     0.191080000000     0.186140000000    -0.0192884  
C130     C      0.393550000000     0.234060000000     0.187950000000    -0.104536   
C131     C      0.307180000000     0.216620000000     0.217520000000    -0.00236822 
C132     C      0.391290000000     0.261700000000     0.217060000000     0.328142   
C133     C      0.406870000000     0.046290000000     0.290190000000    -0.0178528  
C134     C      0.480430000000     0.120830000000     0.291520000000    -0.106473   
C135     C      0.382970000000     0.071380000000     0.276440000000    -0.0056118  
C136     C      0.457620000000     0.144520000000     0.275040000000     0.329099   
C137     C      0.113290000000     0.459910000000     0.436060000000    -0.0158417  
C138     C      0.038590000000     0.386320000000     0.434560000000    -0.102686   
C139     C      0.123080000000     0.451260000000     0.400940000000    -0.00351876 
C140     C      0.051100000000     0.375490000000     0.400570000000     0.325379   
C141     C      0.244290000000     0.227860000000     0.362790000000    -0.0148538  
C142     C      0.317680000000     0.301990000000     0.360360000000    -0.0998633  
C143     C      0.225440000000     0.243650000000     0.334860000000    -0.00414163 
C144     C      0.296970000000     0.319730000000     0.334330000000     0.321492   
C145     C      0.487670000000     0.433600000000     0.354600000000    -0.0155149  
C146     C      0.440740000000     0.470960000000     0.356000000000    -0.107222   
C147     C      0.511980000000     0.459980000000     0.323330000000    -0.00351107 
C148     C      0.465970000000     0.500980000000     0.326170000000     0.329199   
C149     C      0.591360000000     0.545990000000     0.069250000000    -0.0167662  
C150     C      0.547640000000     0.586730000000     0.068280000000    -0.100366   
C151     C      0.565800000000     0.518860000000     0.099900000000    -0.00212257 
C152     C      0.524360000000     0.564670000000     0.101090000000     0.323855   
C153     C      0.890560000000     0.181030000000     0.477670000000    -0.0175073  
C154     C      0.851440000000     0.228680000000     0.479700000000    -0.107591   
C155     C      0.922850000000     0.213880000000     0.451350000000    -0.0039969  
C156     C      0.883090000000     0.258600000000     0.452060000000     0.329796   
C157     C      0.803170000000     0.177310000000     0.231640000000    -0.0136891  
C158     C      0.846850000000     0.134160000000     0.229740000000    -0.101674   
C159     C      0.776040000000     0.149980000000     0.201460000000    -0.0100224  
C160     C      0.816010000000     0.105310000000     0.201340000000     0.326611   
C161     C      0.148030000000     0.302540000000     0.233160000000    -0.0167607  
C162     C      0.182150000000     0.388910000000     0.231940000000    -0.107367   
C163     C      0.111310000000     0.299470000000     0.256900000000    -0.00622032 
C164     C      0.144700000000     0.383750000000     0.255240000000     0.330006   
C165     C      0.184320000000     0.305660000000     0.005150000000    -0.018983   
C166     C      0.221930000000     0.392670000000     0.004580000000    -0.104007   
C167     C      0.208340000000     0.308420000000     0.972590000000    -0.00141153 
C168     C      0.247820000000     0.393400000000     0.973520000000     0.327767   
C169     C      0.031790000000     0.309330000000     0.099880000000    -0.0184724  
C170     C      0.031670000000     0.234730000000     0.098510000000    -0.105777   
C171     C      0.988930000000     0.286700000000     0.121710000000    -0.00635154 
C172     C      0.991860000000     0.214290000000     0.122470000000     0.327971   
C173     C      0.366640000000     0.393100000000     0.176020000000    -0.0187683  
C174     C      0.363630000000     0.465880000000     0.179710000000    -0.104301   
C175     C      0.344500000000     0.384300000000     0.141520000000    -0.00520444 
C176     C      0.346860000000     0.459310000000     0.144090000000     0.327082   
C177     C      0.546320000000     0.968900000000     0.349770000000    -0.0142868  
C178     C      0.592180000000     0.053600000000     0.349600000000    -0.0996143  
C179     C      0.517540000000     0.969530000000     0.378570000000    -0.0055049  
C180     C      0.563090000000     0.056920000000     0.377230000000     0.322328   
C181     C      0.445080000000     0.979630000000     0.135590000000    -0.0160862  
C182     C      0.492010000000     0.064350000000     0.135360000000    -0.0988684  
C183     C      0.468880000000     0.976220000000     0.104570000000    -0.00396445 
C184     C      0.513680000000     0.063510000000     0.102320000000     0.320968   
C185     C      0.684500000000     0.053330000000     0.053430000000    -0.0189871  
C186     C      0.684410000000     0.127600000000     0.056300000000    -0.105744   
C187     C      0.663120000000     0.044930000000     0.018720000000    -0.00455959 
C188     C      0.668470000000     0.121510000000     0.020510000000     0.329309   
C189     C      0.247650000000     0.883320000000     0.258270000000    -0.0163725  
C190     C      0.202800000000     0.922980000000     0.257710000000    -0.0982661  
C191     C      0.220650000000     0.854080000000     0.287850000000    -0.00394079 
C192     C      0.177680000000     0.898010000000     0.289330000000     0.320833   
C193     C      0.147840000000     0.770590000000     0.043560000000    -0.0148926  
C194     C      0.101080000000     0.808160000000     0.044360000000    -0.0995292  
C195     C      0.174760000000     0.799340000000     0.013740000000    -0.00516355 
C196     C      0.128900000000     0.840380000000     0.016150000000     0.323371   
C197     C      0.354550000000     0.907680000000     0.462660000000    -0.0169634  
C198     C      0.358640000000     0.983990000000     0.461520000000    -0.10242    
C199     C      0.333250000000     0.897120000000     0.428320000000    -0.00565837 
C200     C      0.332870000000     0.971090000000     0.428370000000     0.322995   
C201     C      0.767100000000     0.636940000000     0.459940000000    -0.0158689  
C202     C      0.810210000000     0.721810000000     0.460800000000    -0.0983597  
C203     C      0.793020000000     0.635900000000     0.429390000000    -0.00353618 
C204     C      0.834490000000     0.723470000000     0.428570000000     0.321649   
C205     C      0.870030000000     0.633380000000     0.174860000000    -0.0151184  
C206     C      0.915860000000     0.718180000000     0.173800000000    -0.108054   
C207     C      0.844270000000     0.634420000000     0.205380000000    -0.00301941 
C208     C      0.889650000000     0.721900000000     0.203290000000     0.328876   
C209     C      0.670930000000     0.559860000000     0.247820000000    -0.0174241  
C210     C      0.667250000000     0.632260000000     0.247810000000    -0.103403   
C211     C      0.686620000000     0.568430000000     0.283820000000    -0.00561889 
C212     C      0.685860000000     0.642140000000     0.283320000000     0.324637   
C213     C      0.022600000000     0.728060000000     0.376010000000    -0.0181502  
C214     C      0.019500000000     0.800530000000     0.379620000000    -0.104127   
C215     C      0.994030000000     0.715260000000     0.344120000000    -0.00509649 
C216     C      0.996030000000     0.790600000000     0.346110000000     0.328909   
C217     C      0.859760000000     0.679850000000     0.755690000000     0.461503   
C218     C      0.820210000000     0.678430000000     0.877460000000     0.450912   
C219     C      0.755930000000     0.639710000000     0.800370000000     0.451396   
C220     C      0.924000000000     0.718750000000     0.832230000000     0.456825   
C221     C      0.159870000000     0.830350000000     0.963410000000     0.455546   
C222     C      0.193580000000     0.867960000000     0.840480000000     0.448917   
C223     C      0.261810000000     0.896430000000     0.915650000000     0.450381   
C224     C      0.092310000000     0.802400000000     0.888780000000     0.432258   
C225     C      0.529930000000     0.014320000000     0.929170000000     0.456245   
C226     C      0.494200000000     0.016580000000     0.551620000000     0.4479     
C227     C      0.426940000000     0.977990000000     0.975620000000     0.425907   
C228     C      0.595430000000     0.051860000000     0.504830000000     0.455492   
C229     C      0.174860000000     0.345960000000     0.680820000000     0.43209    
C230     C      0.201950000000     0.349640000000     0.556700000000     0.429479   
C231     C      0.274340000000     0.387940000000     0.629960000000     0.451377   
C232     C      0.103320000000     0.307170000000     0.608420000000     0.42851    
C233     C      0.859260000000     0.191620000000     0.529750000000     0.425825   
C234     C      0.813460000000     0.145520000000     0.650170000000     0.457051   
C235     C      0.753290000000     0.124960000000     0.572060000000     0.43011    
C236     C      0.919750000000     0.213030000000     0.607620000000     0.453478   
C237     C      0.538180000000     0.533060000000     0.652010000000     0.450355   
C238     C      0.496110000000     0.490420000000     0.773350000000     0.458753   
C239     C      0.433910000000     0.465720000000     0.695260000000     0.43285    
C240     C      0.600490000000     0.558510000000     0.730120000000     0.429067   
C241     C      0.202950000000     0.350200000000     0.924150000000     0.457483   
C242     C      0.144770000000     0.344660000000     0.807160000000     0.46391    
C243     C      0.125990000000     0.382160000000     0.885450000000     0.461042   
C244     C      0.221250000000     0.313110000000     0.846010000000     0.453717   
C245     C      0.354000000000     0.155410000000     0.881830000000     0.429121   
C246     C      0.350230000000     0.215970000000     0.766800000000     0.454408   
C247     C      0.314770000000     0.228450000000     0.848010000000     0.430215   
C248     C      0.389090000000     0.142650000000     0.799200000000     0.455484   
C249     C      0.003320000000     0.472460000000     0.530470000000     0.459106   
C250     C      0.006600000000     0.533080000000     0.914390000000     0.45546    
C251     C      0.966300000000     0.546940000000     0.493050000000     0.453007   
C252     C      0.042830000000     0.459190000000     0.951790000000     0.433888   
C253     C      0.689650000000     0.872640000000     0.624500000000     0.454981   
C254     C      0.691900000000     0.816410000000     0.741040000000     0.434471   
C255     C      0.726170000000     0.798200000000     0.660850000000     0.456548   
C256     C      0.654840000000     0.889600000000     0.704780000000     0.428779   
C257     C      0.870270000000     0.676240000000     0.625090000000     0.43064    
C258     C      0.812470000000     0.677870000000     0.509070000000     0.428943   
C259     C      0.799220000000     0.716440000000     0.588710000000     0.430055   
C260     C      0.883740000000     0.637180000000     0.546410000000     0.429024   
C261     C      0.549910000000     0.012670000000     0.799480000000     0.429394   
C262     C      0.491950000000     0.020070000000     0.684440000000     0.427758   
C263     C      0.477730000000     0.052280000000     0.767500000000     0.430484   
C264     C      0.565490000000     0.980920000000     0.717260000000     0.453837   
C265     C      0.352890000000     0.169830000000     0.513080000000     0.450195   
C266     C      0.352150000000     0.206460000000     0.635550000000     0.426886   
C267     C      0.392950000000     0.273430000000     0.560150000000     0.451632   
C268     C      0.311950000000     0.103370000000     0.589320000000     0.428594   
C269     C      0.545990000000     0.540730000000     0.519860000000     0.425994   
C270     C      0.486540000000     0.475280000000     0.904910000000     0.429162   
C271     C      0.471660000000     0.427930000000     0.487800000000     0.428364   
C272     C      0.561010000000     0.587670000000     0.937320000000     0.454136   
C273     C      0.203990000000     0.879810000000     0.708280000000     0.425751   
C274     C      0.144360000000     0.810470000000     0.594190000000     0.429251   
C275     C      0.129120000000     0.766690000000     0.678800000000     0.454175   
C276     C      0.218790000000     0.922850000000     0.623030000000     0.452773   
C277     C      0.003430000000     0.481260000000     0.661410000000     0.429129   
C278     C      0.008080000000     0.519580000000     0.783780000000     0.428168   
C279     C      0.041630000000     0.584810000000     0.706940000000     0.428228   
C280     C      0.970480000000     0.416270000000     0.738740000000     0.452627   
C281     C      0.836290000000     0.165290000000     0.781850000000     0.426816   
C282     C      0.885960000000     0.219320000000     0.900460000000     0.461708   
C283     C      0.904320000000     0.273630000000     0.819620000000     0.433356   
C284     C      0.817180000000     0.109400000000     0.862790000000     0.45087    
C285     C      0.691150000000     0.866090000000     0.992710000000     0.429669   
C286     C      0.693620000000     0.846190000000     0.867990000000     0.456535   
C287     C      0.652170000000     0.769830000000     0.937560000000     0.429348   
C288     C      0.732530000000     0.943280000000     0.922530000000     0.429943   
C289     C      0.730210000000     0.015080000000     0.912600000000    -0.0158583  
C290     C      0.804220000000     0.016790000000     0.915750000000    -0.100611   
C291     C      0.744610000000     0.041340000000     0.879660000000    -0.00707546 
C292     C      0.817740000000     0.039210000000     0.881770000000     0.323761   
C293     C      0.901220000000     0.340310000000     0.797420000000    -0.016837   
C294     C      0.974010000000     0.338410000000     0.794940000000    -0.102696   
C295     C      0.903090000000     0.347170000000     0.760010000000    -0.00533158 
C296     C      0.977160000000     0.348790000000     0.757700000000     0.324546   
C297     C      0.110560000000     0.655800000000     0.690260000000    -0.0169322  
C298     C      0.034330000000     0.651580000000     0.689360000000    -0.100301   
C299     C      0.131110000000     0.702570000000     0.706290000000    -0.0035017  
C300     C      0.057270000000     0.701310000000     0.702170000000     0.322511   
C301     C      0.654630000000     0.697690000000     0.944690000000    -0.0184015  
C302     C      0.579840000000     0.696640000000     0.941620000000    -0.106845   
C303     C      0.634710000000     0.655440000000     0.921840000000    -0.00643604 
C304     C      0.563420000000     0.658310000000     0.916340000000     0.328682   
C305     C      0.314820000000     0.035230000000     0.609330000000    -0.0190173  
C306     C      0.240390000000     0.034870000000     0.605570000000    -0.10619    
C307     C      0.290090000000     0.984790000000     0.598340000000    -0.0045645  
C308     C      0.218110000000     0.986510000000     0.591960000000     0.327573   
C309     C      0.399840000000     0.363260000000     0.510080000000    -0.0188414  
C310     C      0.472390000000     0.360110000000     0.510000000000    -0.106599   
C311     C      0.390200000000     0.343680000000     0.545420000000    -0.00491453 
C312     C      0.464460000000     0.345840000000     0.546210000000     0.328833   
C313     C      0.649810000000     0.781470000000     0.792250000000    -0.0190474  
C314     C      0.734150000000     0.821360000000     0.791880000000    -0.103229   
C315     C      0.650770000000     0.817470000000     0.815970000000    -0.00265138 
C316     C      0.736780000000     0.857630000000     0.815720000000     0.327551   
C317     C      0.646130000000     0.846680000000     0.543890000000    -0.0193687  
C318     C      0.732530000000     0.888670000000     0.545420000000    -0.102758   
C319     C      0.646740000000     0.872730000000     0.575030000000    -0.00162317 
C320     C      0.731100000000     0.916850000000     0.574440000000     0.326459   
C321     C      0.801040000000     0.787720000000     0.605840000000    -0.0159752  
C322     C      0.728110000000     0.712640000000     0.608430000000    -0.101222   
C323     C      0.794630000000     0.797230000000     0.641710000000    -0.00600774 
C324     C      0.720340000000     0.723790000000     0.643750000000     0.323692   
C325     C      0.585530000000     0.890490000000     0.721670000000    -0.0162966  
C326     C      0.660480000000     0.963590000000     0.720550000000    -0.10209    
C327     C      0.565610000000     0.911470000000     0.698590000000    -0.00360646 
C328     C      0.638810000000     0.985870000000     0.699610000000     0.323689   
C329     C      0.964140000000     0.505550000000     0.834920000000    -0.0181274  
C330     C      0.050620000000     0.546690000000     0.836010000000    -0.102335   
C331     C      0.965550000000     0.534410000000     0.864410000000    -0.00209084 
C332     C      0.049830000000     0.576170000000     0.864510000000     0.32524    
C333     C      0.960620000000     0.455900000000     0.609220000000    -0.0164521  
C334     C      0.047190000000     0.494770000000     0.610280000000    -0.106848   
C335     C      0.960540000000     0.428090000000     0.579270000000    -0.00479999 
C336     C      0.044610000000     0.467080000000     0.579740000000     0.328828   
C337     C      0.956460000000     0.639880000000     0.533390000000    -0.0179193  
C338     C      0.883640000000     0.564930000000     0.537400000000    -0.10405    
C339     C      0.970830000000     0.621320000000     0.503910000000    -0.00532124 
C340     C      0.895470000000     0.548310000000     0.506070000000     0.325618   
C341     C      0.312320000000     0.113010000000     0.931790000000    -0.022165   
C342     C      0.396610000000     0.155590000000     0.931610000000    -0.100375   
C343     C      0.311390000000     0.141940000000     0.960670000000    -0.000816487
C344     C      0.397880000000     0.183380000000     0.961900000000     0.32342    
C345     C      0.306900000000     0.191080000000     0.686140000000    -0.0192878  
C346     C      0.393550000000     0.234060000000     0.687950000000    -0.104536   
C347     C      0.307180000000     0.216620000000     0.717520000000    -0.00236858 
C348     C      0.391290000000     0.261700000000     0.717060000000     0.328142   
C349     C      0.406860000000     0.046290000000     0.790190000000    -0.0179178  
C350     C      0.480430000000     0.120830000000     0.791520000000    -0.106464   
C351     C      0.382970000000     0.071380000000     0.776440000000    -0.0055468  
C352     C      0.457620000000     0.144520000000     0.775040000000     0.329099   
C353     C      0.113290000000     0.459910000000     0.936060000000    -0.0158348  
C354     C      0.038590000000     0.386330000000     0.934560000000    -0.10261    
C355     C      0.123080000000     0.451260000000     0.900940000000    -0.00353279 
C356     C      0.051100000000     0.375490000000     0.900570000000     0.325375   
C357     C      0.244290000000     0.227860000000     0.862790000000    -0.0148554  
C358     C      0.317680000000     0.301990000000     0.860360000000    -0.0998941  
C359     C      0.225440000000     0.243650000000     0.834860000000    -0.00413346 
C360     C      0.296970000000     0.319730000000     0.834330000000     0.321512   
C361     C      0.487670000000     0.433610000000     0.854610000000    -0.0153526  
C362     C      0.440740000000     0.470960000000     0.856000000000    -0.107235   
C363     C      0.511980000000     0.459980000000     0.823330000000    -0.00360448 
C364     C      0.465970000000     0.500980000000     0.826170000000     0.329212   
C365     C      0.591360000000     0.545990000000     0.569250000000    -0.0167636  
C366     C      0.547640000000     0.586730000000     0.568280000000    -0.100358   
C367     C      0.565800000000     0.518860000000     0.599900000000    -0.00211912 
C368     C      0.524360000000     0.564670000000     0.601090000000     0.323853   
C369     C      0.890560000000     0.181030000000     0.977670000000    -0.0175187  
C370     C      0.851440000000     0.228680000000     0.979700000000    -0.107601   
C371     C      0.922850000000     0.213880000000     0.951350000000    -0.00399569 
C372     C      0.883090000000     0.258600000000     0.952060000000     0.329796   
C373     C      0.803170000000     0.177310000000     0.731640000000    -0.0136813  
C374     C      0.846840000000     0.134160000000     0.729740000000    -0.101539   
C375     C      0.776040000000     0.149980000000     0.701460000000    -0.0100542  
C376     C      0.816010000000     0.105310000000     0.701340000000     0.326447   
C377     C      0.148030000000     0.302540000000     0.733160000000    -0.0167584  
C378     C      0.182150000000     0.388910000000     0.731950000000    -0.107435   
C379     C      0.111310000000     0.299470000000     0.756900000000    -0.0062193  
C380     C      0.144700000000     0.383750000000     0.755240000000     0.330054   
C381     C      0.184320000000     0.305660000000     0.505150000000    -0.0191641  
C382     C      0.221930000000     0.392660000000     0.504580000000    -0.104082   
C383     C      0.208340000000     0.308420000000     0.472590000000    -0.00130596 
C384     C      0.247820000000     0.393400000000     0.473520000000     0.327815   
C385     C      0.031790000000     0.309330000000     0.599880000000    -0.0184468  
C386     C      0.031670000000     0.234730000000     0.598510000000    -0.1058     
C387     C      0.988930000000     0.286700000000     0.621710000000    -0.00636108 
C388     C      0.991860000000     0.214290000000     0.622470000000     0.327977   
C389     C      0.366640000000     0.393100000000     0.676020000000    -0.0187738  
C390     C      0.363630000000     0.465890000000     0.679710000000    -0.104433   
C391     C      0.344500000000     0.384300000000     0.641520000000    -0.0051917  
C392     C      0.346850000000     0.459310000000     0.644090000000     0.327254   
C393     C      0.546320000000     0.968900000000     0.849770000000    -0.0142503  
C394     C      0.592180000000     0.053600000000     0.849600000000    -0.0995633  
C395     C      0.517540000000     0.969530000000     0.878570000000    -0.00551604 
C396     C      0.563090000000     0.056920000000     0.877230000000     0.322346   
C397     C      0.445080000000     0.979630000000     0.635590000000    -0.0160806  
C398     C      0.492010000000     0.064350000000     0.635360000000    -0.0988619  
C399     C      0.468880000000     0.976220000000     0.604570000000    -0.00396394 
C400     C      0.513680000000     0.063510000000     0.602320000000     0.320965   
C401     C      0.684500000000     0.053330000000     0.553430000000    -0.0189604  
C402     C      0.684410000000     0.127600000000     0.556300000000    -0.105771   
C403     C      0.663130000000     0.044930000000     0.518720000000    -0.00462388 
C404     C      0.668460000000     0.121510000000     0.520510000000     0.329433   
C405     C      0.247650000000     0.883330000000     0.758270000000    -0.0162565  
C406     C      0.202800000000     0.922970000000     0.757710000000    -0.0981903  
C407     C      0.220650000000     0.854080000000     0.787850000000    -0.00399119 
C408     C      0.177680000000     0.898010000000     0.789330000000     0.320785   
C409     C      0.147840000000     0.770590000000     0.543560000000    -0.0148428  
C410     C      0.101080000000     0.808160000000     0.544360000000    -0.0995776  
C411     C      0.174760000000     0.799340000000     0.513740000000    -0.00534358 
C412     C      0.128900000000     0.840380000000     0.516150000000     0.323507   
C413     C      0.354550000000     0.907680000000     0.962660000000    -0.0169273  
C414     C      0.358640000000     0.983990000000     0.961520000000    -0.102425   
C415     C      0.333250000000     0.897120000000     0.928320000000    -0.00565744 
C416     C      0.332870000000     0.971090000000     0.928370000000     0.323016   
C417     C      0.767100000000     0.636950000000     0.959940000000    -0.0157901  
C418     C      0.810210000000     0.721810000000     0.960800000000    -0.0982756  
C419     C      0.793020000000     0.635900000000     0.929390000000    -0.003582   
C420     C      0.834490000000     0.723460000000     0.928570000000     0.321516   
C421     C      0.870030000000     0.633380000000     0.674860000000    -0.0151291  
C422     C      0.915860000000     0.718180000000     0.673810000000    -0.10809    
C423     C      0.844270000000     0.634420000000     0.705380000000    -0.00301569 
C424     C      0.889650000000     0.721900000000     0.703290000000     0.32877    
C425     C      0.670920000000     0.559860000000     0.747820000000    -0.0173287  
C426     C      0.667250000000     0.632260000000     0.747810000000    -0.103402   
C427     C      0.686620000000     0.568430000000     0.783820000000    -0.00568039 
C428     C      0.685860000000     0.642140000000     0.783320000000     0.324631   
C429     C      0.022600000000     0.728060000000     0.876010000000    -0.0180512  
C430     C      0.019500000000     0.800530000000     0.879620000000    -0.104104   
C431     C      0.994030000000     0.715250000000     0.844120000000    -0.00520858 
C432     C      0.996030000000     0.790600000000     0.846110000000     0.328771   
F1       F      0.864680000000     0.065640000000     0.380790000000    -0.422068   
F2       F      0.022290000000     0.373690000000     0.248210000000    -0.425932   
F3       F      0.035490000000     0.722850000000     0.188500000000    -0.431511   
F4       F      0.516390000000     0.633190000000     0.415960000000    -0.423799   
F5       F      0.171910000000     0.964270000000     0.098390000000    -0.423241   
F6       F      0.487260000000     0.322590000000     0.053870000000    -0.417953   
F7       F      0.774770000000     0.872570000000     0.335640000000    -0.414693   
F8       F      0.770290000000     0.932300000000     0.093080000000    -0.422249   
F9       F      0.674140000000     0.704150000000     0.149470000000    -0.423819   
F10      F      0.659240000000     0.031950000000     0.207370000000    -0.436355   
F11      F      0.088410000000     0.590690000000     0.383710000000    -0.43224    
F12      F      0.083580000000     0.490880000000     0.060820000000    -0.43101    
F13      F      0.874530000000     0.501010000000     0.507710000000    -0.428981   
F14      F      0.433800000000     0.189860000000     0.481830000000    -0.414911   
F15      F      0.430490000000     0.277910000000     0.235790000000    -0.420348   
F16      F      0.480850000000     0.190600000000     0.283100000000    -0.41716    
F17      F      0.032840000000     0.328620000000     0.397580000000    -0.428439   
F18      F      0.315250000000     0.366470000000     0.338250000000    -0.424946   
F19      F      0.435310000000     0.507040000000     0.307280000000    -0.41551    
F20      F      0.522650000000     0.597880000000     0.120200000000    -0.418208   
F21      F      0.861690000000     0.276250000000     0.432830000000    -0.426693   
F22      F      0.839030000000     0.089440000000     0.182160000000    -0.412458   
F23      F      0.159440000000     0.422800000000     0.274310000000    -0.417686   
F24      F      0.258590000000     0.432420000000     0.955410000000    -0.423274   
F25      F      0.967590000000     0.167170000000     0.118790000000    -0.41526    
F26      F      0.323200000000     0.482420000000     0.139290000000    -0.421529   
F27      F      0.591010000000     0.093730000000     0.397300000000    -0.420632   
F28      F      0.517650000000     0.099340000000     0.083080000000    -0.414659   
F29      F      0.646130000000     0.145870000000     0.015340000000    -0.408518   
F30      F      0.172290000000     0.928610000000     0.308980000000    -0.421154   
F31      F      0.100090000000     0.848630000000     0.996750000000    -0.423277   
F32      F      0.305740000000     0.990910000000     0.426660000000    -0.432497   
F33      F      0.837420000000     0.758980000000     0.409480000000    -0.411866   
F34      F      0.919490000000     0.758750000000     0.222590000000    -0.414942   
F35      F      0.711380000000     0.689010000000     0.288070000000    -0.428554   
F36      F      0.970530000000     0.812230000000     0.344790000000    -0.404473   
F37      F      0.864680000000     0.065640000000     0.880790000000    -0.422074   
F38      F      0.022290000000     0.373690000000     0.748210000000    -0.425932   
F39      F      0.035490000000     0.722850000000     0.688500000000    -0.431511   
F40      F      0.516390000000     0.633190000000     0.915960000000    -0.423799   
F41      F      0.171910000000     0.964270000000     0.598390000000    -0.423246   
F42      F      0.487260000000     0.322590000000     0.553870000000    -0.417967   
F43      F      0.774770000000     0.872570000000     0.835650000000    -0.414631   
F44      F      0.770290000000     0.932290000000     0.593080000000    -0.422247   
F45      F      0.674140000000     0.704150000000     0.649470000000    -0.423847   
F46      F      0.659250000000     0.031950000000     0.707370000000    -0.436354   
F47      F      0.088410000000     0.590690000000     0.883710000000    -0.432243   
F48      F      0.083580000000     0.490880000000     0.560820000000    -0.431015   
F49      F      0.874530000000     0.501010000000     0.007710000000    -0.428959   
F50      F      0.433800000000     0.189860000000     0.981830000000    -0.414935   
F51      F      0.430490000000     0.277910000000     0.735790000000    -0.420348   
F52      F      0.480850000000     0.190600000000     0.783100000000    -0.41716    
F53      F      0.032840000000     0.328620000000     0.897580000000    -0.428443   
F54      F      0.315250000000     0.366470000000     0.838250000000    -0.424946   
F55      F      0.435310000000     0.507040000000     0.807280000000    -0.415507   
F56      F      0.522650000000     0.597880000000     0.620200000000    -0.418217   
F57      F      0.861690000000     0.276250000000     0.932830000000    -0.4267     
F58      F      0.839040000000     0.089440000000     0.682160000000    -0.412387   
F59      F      0.159440000000     0.422800000000     0.774310000000    -0.417692   
F60      F      0.258580000000     0.432420000000     0.455410000000    -0.423258   
F61      F      0.967590000000     0.167170000000     0.618790000000    -0.415265   
F62      F      0.323200000000     0.482420000000     0.639290000000    -0.421617   
F63      F      0.591000000000     0.093730000000     0.897300000000    -0.420653   
F64      F      0.517650000000     0.099340000000     0.583080000000    -0.41467    
F65      F      0.646130000000     0.145870000000     0.515340000000    -0.408623   
F66      F      0.172290000000     0.928610000000     0.808980000000    -0.421149   
F67      F      0.100100000000     0.848620000000     0.496750000000    -0.423325   
F68      F      0.305740000000     0.990910000000     0.926660000000    -0.432505   
F69      F      0.837420000000     0.758980000000     0.909480000000    -0.411793   
F70      F      0.919490000000     0.758750000000     0.722600000000    -0.414878   
F71      F      0.711380000000     0.689010000000     0.788070000000    -0.428548   
F72      F      0.970530000000     0.812240000000     0.844800000000    -0.404406   
H1       H      0.816880000000     0.044250000000     0.434790000000     0.0874228  
H2       H      0.739430000000     0.040480000000     0.432870000000     0.0470583  
H3       H      0.730380000000     0.064640000000     0.378390000000     0.0541854  
H4       H      0.821090000000     0.996280000000     0.420090000000     0.10706    
H5       H      0.806820000000     0.011790000000     0.362840000000     0.0134635  
H6       H      0.692710000000     0.992530000000     0.412920000000     0.0505936  
H7       H      0.728910000000     0.016070000000     0.359290000000     0.0465781  
H8       H      0.993780000000     0.371410000000     0.308340000000     0.0971891  
H9       H      0.918000000000     0.374520000000     0.309500000000     0.0511243  
H10      H      0.884200000000     0.365040000000     0.253370000000     0.0497408  
H11      H      0.989950000000     0.317270000000     0.300270000000     0.104709   
H12      H      0.961470000000     0.315490000000     0.244400000000    -0.00264912 
H13      H      0.865170000000     0.321720000000     0.305490000000     0.0578389  
H14      H      0.885630000000     0.312950000000     0.247960000000     0.0414912  
H15      H      0.031160000000     0.652220000000     0.162030000000     0.0870436  
H16      H      0.115700000000     0.660430000000     0.163070000000     0.0507358  
H17      H      0.168120000000     0.722130000000     0.200990000000     0.0483287  
H18      H      0.999430000000     0.632230000000     0.199740000000     0.0859881  
H19      H      0.052700000000     0.700080000000     0.229440000000    -0.00152639 
H20      H      0.129270000000     0.638690000000     0.199180000000     0.0552744  
H21      H      0.127110000000     0.697790000000     0.233550000000     0.0426481  
H22      H      0.568520000000     0.681290000000     0.466590000000     0.0894536  
H23      H      0.650890000000     0.685570000000     0.470670000000     0.0466074  
H24      H      0.649580000000     0.633720000000     0.928530000000     0.0492905  
H25      H      0.563610000000     0.717510000000     0.436330000000     0.0987392  
H26      H      0.574870000000     0.674110000000     0.391480000000     0.00218107 
H27      H      0.691540000000     0.719310000000     0.439540000000     0.058566   
H28      H      0.644980000000     0.667550000000     0.396020000000     0.0533592  
H29      H      0.234520000000     0.033060000000     0.132720000000     0.0901115  
H30      H      0.317510000000     0.036230000000     0.136750000000     0.0473989  
H31      H      0.306370000000     0.967060000000     0.110490000000     0.0461564  
H32      H      0.223470000000     0.052570000000     0.094400000000     0.100304   
H33      H      0.222610000000     0.988880000000     0.064650000000     0.00451762 
H34      H      0.349890000000     0.052430000000     0.099170000000     0.0578009  
H35      H      0.294560000000     0.983760000000     0.071170000000     0.0459571  
H36      H      0.458110000000     0.328790000000     0.994400000000     0.096933   
H37      H      0.381150000000     0.334310000000     0.492620000000     0.0487671  
H38      H      0.352940000000     0.321930000000     0.048970000000     0.0480686  
H39      H      0.509580000000     0.380190000000     0.005450000000     0.101881   
H40      H      0.479160000000     0.377420000000     0.061570000000    -0.00294975 
H41      H      0.386010000000     0.386740000000     0.007190000000     0.0552542  
H42      H      0.402380000000     0.372880000000     0.062950000000     0.0414261  
H43      H      0.733740000000     0.793300000000     0.306610000000     0.11741    
H44      H      0.648160000000     0.752940000000     0.307140000000     0.064202   
H45      H      0.620630000000     0.800550000000     0.332480000000     0.0496664  
H46      H      0.764700000000     0.836150000000     0.275710000000     0.108401   
H47      H      0.741320000000     0.887320000000     0.300800000000     0.00607315 
H48      H      0.618890000000     0.767550000000     0.276530000000     0.0578582  
H49      H      0.648110000000     0.843850000000     0.301200000000     0.0432054  
H50      H      0.736410000000     0.859950000000     0.055130000000     0.0904448  
H51      H      0.639270000000     0.812120000000     0.051500000000     0.0530848  
H52      H      0.616170000000     0.851030000000     0.090280000000     0.0483309  
H53      H      0.762750000000     0.910810000000     0.029940000000     0.0955005  
H54      H      0.730160000000     0.947070000000     0.064400000000    -0.00138661 
H55      H      0.617420000000     0.841700000000     0.027870000000     0.0511113  
H56      H      0.644780000000     0.903280000000     0.067130000000     0.0393168  
H57      H      0.710000000000     0.723720000000     0.091140000000     0.0878775  
H58      H      0.786160000000     0.803400000000     0.089540000000     0.055255   
H59      H      0.812060000000     0.834870000000     0.145440000000     0.0666405  
H60      H      0.712840000000     0.674990000000     0.105780000000     0.0896549  
H61      H      0.733760000000     0.707710000000     0.161000000000     6.03148e-05
H62      H      0.837980000000     0.804510000000     0.100470000000     0.0612452  
H63      H      0.811300000000     0.783350000000     0.157970000000     0.0551134  
H64      H      0.658720000000     0.971590000000     0.247000000000     0.0874143  
H65      H      0.578890000000     0.896510000000     0.247590000000     0.0469286  
H66      H      0.528230000000     0.894140000000     0.202110000000     0.0478962  
H67      H      0.696870000000     0.978870000000     0.213720000000     0.0980919  
H68      H      0.645900000000     0.982840000000     0.173170000000    -0.000872873
H69      H      0.567990000000     0.852890000000     0.217750000000     0.0524033  
H70      H      0.571920000000     0.905100000000     0.172670000000     0.0425664  
H71      H      0.054680000000     0.518400000000     0.346380000000     0.0928887  
H72      H      0.957000000000     0.471580000000     0.344260000000     0.051758   
H73      H      0.934550000000     0.514860000000     0.379770000000     0.0507012  
H74      H      0.080570000000     0.568070000000     0.320080000000     0.0931484  
H75      H      0.050310000000     0.606800000000     0.353810000000    -0.00547179 
H76      H      0.935270000000     0.499570000000     0.318710000000     0.0506301  
H77      H      0.965290000000     0.565160000000     0.354760000000     0.039617   
H78      H      0.055920000000     0.529760000000     0.102240000000     0.0915763  
H79      H      0.956910000000     0.485070000000     0.100350000000     0.0533504  
H80      H      0.930010000000     0.418860000000     0.063920000000     0.0575213  
H81      H      0.075420000000     0.498350000000     0.126240000000     0.0961228  
H82      H      0.042910000000     0.434940000000     0.088360000000    -0.00429079 
H83      H      0.930620000000     0.433790000000     0.124900000000     0.0511847  
H84      H      0.958550000000     0.395970000000     0.088280000000     0.0432965  
H85      H      0.895350000000     0.553310000000     0.059100000000     0.0878783  
H86      H      0.971930000000     0.634960000000     0.056130000000     0.048596   
H87      H      0.008160000000     0.635460000000     0.005030000000     0.050727   
H88      H      0.846060000000     0.548570000000     0.038910000000     0.0968744  
H89      H      0.881420000000     0.557640000000     0.484520000000    -0.0023411  
H90      H      0.970610000000     0.677300000000     0.030100000000     0.0545491  
H91      H      0.963630000000     0.634560000000     0.980880000000     0.0433481  
H92      H      0.397720000000     0.124920000000     0.440430000000     0.100515   
H93      H      0.311840000000     0.082150000000     0.442000000000     0.0783214  
H94      H      0.281370000000     0.120130000000     0.476420000000     0.052125   
H95      H      0.427270000000     0.176060000000     0.416110000000     0.0993387  
H96      H      0.404990000000     0.217590000000     0.453170000000     0.00220532 
H97      H      0.281420000000     0.101680000000     0.416380000000     0.0638193  
H98      H      0.307090000000     0.170230000000     0.450610000000     0.0443297  
H99      H      0.398730000000     0.206100000000     0.197570000000     0.098521   
H100     H      0.299270000000     0.156140000000     0.193370000000     0.0505672  
H101     H      0.276630000000     0.194520000000     0.232680000000     0.0480224  
H102     H      0.423360000000     0.256840000000     0.172320000000     0.0998825  
H103     H      0.389590000000     0.291550000000     0.207080000000    -0.00345453 
H104     H      0.278660000000     0.186910000000     0.169920000000     0.0513968  
H105     H      0.304860000000     0.247070000000     0.209870000000     0.0403003  
H106     H      0.478540000000     0.123940000000     0.318780000000     0.0946962  
H107     H      0.402650000000     0.043970000000     0.317510000000     0.052182   
H108     H      0.347710000000     0.054560000000     0.286200000000     0.0537427  
H109     H      0.516930000000     0.138610000000     0.284580000000     0.103541   
H110     H      0.460110000000     0.141690000000     0.247810000000     0.00362106 
H111     H      0.389960000000     0.010890000000     0.280140000000     0.0490724  
H112     H      0.380940000000     0.067440000000     0.249100000000     0.0432158  
H113     H      0.048230000000     0.369080000000     0.953720000000     0.0912583  
H114     H      0.128560000000     0.445940000000     0.453570000000     0.0621429  
H115     H      0.160480000000     0.469380000000     0.397340000000     0.0685687  
H116     H      0.001190000000     0.371580000000     0.435960000000     0.0980999  
H117     H      0.034990000000     0.386480000000     0.381470000000     0.00215769 
H118     H      0.129950000000     0.497450000000     0.440080000000     0.0689117  
H119     H      0.108740000000     0.466210000000     0.383450000000     0.0572754  
H120     H      0.312620000000     0.312830000000     0.385210000000     0.086648   
H121     H      0.235470000000     0.237710000000     0.386730000000     0.0479838  
H122     H      0.187770000000     0.225370000000     0.336270000000     0.0525022  
H123     H      0.354810000000     0.317840000000     0.356000000000     0.0902129  
H124     H      0.306860000000     0.313570000000     0.309480000000     0.00069085 
H125     H      0.228160000000     0.189960000000     0.362470000000     0.0542734  
H126     H      0.234670000000     0.234210000000     0.310910000000     0.0451783  
H127     H      0.410840000000     0.438960000000     0.346870000000     0.120493   
H128     H      0.457970000000     0.400490000000     0.346880000000     0.0548899  
H129     H      0.517250000000     0.436700000000     0.306810000000     0.0565443  
H130     H      0.428200000000     0.489280000000     0.371790000000     0.115009   
H131     H      0.492660000000     0.535040000000     0.335270000000     0.00975763 
H132     H      0.510620000000     0.425710000000     0.369210000000     0.0534705  
H133     H      0.546250000000     0.488100000000     0.330510000000     0.0434244  
H134     H      0.578540000000     0.620000000000     0.073970000000     0.0977122  
H135     H      0.622240000000     0.577850000000     0.077370000000     0.0511041  
H136     H      0.589450000000     0.512890000000     0.115350000000     0.050852   
H137     H      0.524850000000     0.594290000000     0.053150000000     0.0937836  
H138     H      0.488810000000     0.537850000000     0.095540000000     0.0016568  
H139     H      0.602200000000     0.525330000000     0.054470000000     0.0519513  
H140     H      0.537640000000     0.484870000000     0.091960000000     0.0483373  
H141     H      0.818280000000     0.203710000000     0.468500000000     0.0967922  
H142     H      0.863190000000     0.150210000000     0.465130000000     0.0551705  
H143     H      0.935150000000     0.195360000000     0.435520000000     0.0657369  
H144     H      0.844990000000     0.250610000000     0.496790000000     0.0970221  
H145     H      0.913090000000     0.287850000000     0.463910000000    -0.000122002
H146     H      0.909780000000     0.169820000000     0.493720000000     0.0573617  
H147     H      0.952640000000     0.242330000000     0.464010000000     0.0544855  
H148     H      0.879340000000     0.161710000000     0.219270000000     0.0981166  
H149     H      0.829950000000     0.211640000000     0.223060000000     0.0466261  
H150     H      0.766250000000     0.171160000000     0.186260000000     0.0562759  
H151     H      0.854770000000     0.112060000000     0.245570000000     0.100375   
H152     H      0.785550000000     0.075360000000     0.212120000000     0.00909591 
H153     H      0.780220000000     0.182810000000     0.248200000000     0.0543239  
H154     H      0.744150000000     0.119980000000     0.210510000000     0.0732141  
H155     H      0.212700000000     0.397000000000     0.246930000000     0.100567   
H156     H      0.175390000000     0.302150000000     0.247990000000     0.0503722  
H157     H      0.099880000000     0.269160000000     0.273250000000     0.0542496  
H158     H      0.191510000000     0.418430000000     0.215200000000     0.105463   
H159     H      0.115600000000     0.379400000000     0.239940000000     0.0235321  
H160     H      0.132820000000     0.271850000000     0.216900000000     0.0534054  
H161     H      0.081750000000     0.294780000000     0.242030000000     0.0556676  
H162     H      0.191900000000     0.395510000000     0.997210000000     0.0950419  
H163     H      0.148730000000     0.296410000000     0.999460000000     0.0522162  
H164     H      0.187020000000     0.277310000000     0.957550000000     0.0476159  
H165     H      0.244430000000     0.423050000000     0.019950000000     0.100068   
H166     H      0.279920000000     0.394810000000     0.981210000000    -0.000457231
H167     H      0.182770000000     0.277390000000     0.020280000000     0.0515804  
H168     H      0.240400000000     0.308650000000     0.978530000000     0.0396714  
H169     H      0.018090000000     0.226700000000     0.072860000000     0.088723   
H170     H      0.020890000000     0.307570000000     0.073750000000     0.050039   
H171     H      0.967620000000     0.302270000000     0.115940000000     0.0510611  
H172     H      0.052460000000     0.218130000000     0.102460000000     0.099925   
H173     H      0.005840000000     0.221850000000     0.148030000000     0.00424525 
H174     H      0.052520000000     0.346050000000     0.106720000000     0.058624   
H175     H      0.999790000000     0.294580000000     0.147970000000     0.0517056  
H176     H      0.333670000000     0.450380000000     0.196450000000     0.0973063  
H177     H      0.339240000000     0.374120000000     0.194430000000     0.0536784  
H178     H      0.322450000000     0.346850000000     0.137780000000     0.0484822  
H179     H      0.383410000000     0.503110000000     0.185160000000     0.112379   
H180     H      0.377020000000     0.474870000000     0.127530000000     0.00554767 
H181     H      0.389870000000     0.378850000000     0.176900000000     0.0565881  
H182     H      0.372080000000     0.396720000000     0.122780000000     0.0419513  
H183     H      0.621150000000     0.052060000000     0.361050000000     0.0884802  
H184     H      0.575240000000     0.966350000000     0.360230000000     0.0438211  
H185     H      0.509630000000     0.940220000000     0.395190000000     0.0464737  
H186     H      0.606130000000     0.084830000000     0.333950000000     0.0957038  
H187     H      0.537160000000     0.063620000000     0.365890000000     0.00240786 
H188     H      0.525960000000     0.938070000000     0.334230000000     0.0470375  
H189     H      0.484690000000     0.963790000000     0.368440000000     0.042203   
H190     H      0.461970000000     0.068160000000     0.129980000000     0.090809   
H191     H      0.414690000000     0.981620000000     0.127910000000     0.0445179  
H192     H      0.444010000000     0.946340000000     0.089750000000     0.0439968  
H193     H      0.516310000000     0.094790000000     0.149930000000     0.0949569  
H194     H      0.548560000000     0.070080000000     0.107500000000     0.00435121 
H195     H      0.433520000000     0.948180000000     0.150680000000     0.0473831  
H196     H      0.496650000000     0.969760000000     0.112130000000     0.0448459  
H197     H      0.654110000000     0.112890000000     0.072710000000     0.0966847  
H198     H      0.656550000000     0.035440000000     0.071630000000     0.0513778  
H199     H      0.639960000000     0.007630000000     0.015140000000     0.0481488  
H200     H      0.705070000000     0.164760000000     0.061790000000     0.105019   
H201     H      0.698940000000     0.136270000000     0.504250000000     0.00547809 
H202     H      0.706530000000     0.037740000000     0.054940000000     0.0560085  
H203     H      0.690960000000     0.056110000000     0.000290000000     0.0437772  
H204     H      0.232900000000     0.956020000000     0.265050000000     0.0891263  
H205     H      0.277860000000     0.914800000000     0.267700000000     0.04514    
H206     H      0.243570000000     0.847060000000     0.303310000000     0.0460263  
H207     H      0.180570000000     0.931120000000     0.242420000000     0.0966779  
H208     H      0.143260000000     0.870270000000     0.282100000000     0.00835063 
H209     H      0.259700000000     0.863930000000     0.243200000000     0.0475584  
H210     H      0.192820000000     0.820730000000     0.278590000000     0.0461543  
H211     H      0.071960000000     0.777010000000     0.033490000000     0.088206   
H212     H      0.118800000000     0.738200000000     0.034090000000     0.0463485  
H213     H      0.181890000000     0.777570000000     0.996980000000     0.0497872  
H214     H      0.087280000000     0.825340000000     0.060140000000     0.104833   
H215     H      0.155260000000     0.873400000000     0.026930000000     0.0113652  
H216     H      0.169490000000     0.761470000000     0.058670000000     0.0499025  
H217     H      0.208120000000     0.827150000000     0.022790000000     0.04302    
H218     H      0.333440000000     0.975520000000     0.481690000000     0.0891314  
H219     H      0.326830000000     0.893600000000     0.481340000000     0.0462719  
H220     H      0.312550000000     0.859390000000     0.425430000000     0.0493803  
H221     H      0.382310000000     0.021560000000     0.962190000000     0.0956965  
H222     H      0.358580000000     0.986100000000     0.408300000000    -0.00267024 
H223     H      0.374390000000     0.889910000000     0.465740000000     0.0500954  
H224     H      0.360960000000     0.910030000000     0.409650000000     0.0414353  
H225     H      0.779180000000     0.723410000000     0.454470000000     0.0890264  
H226     H      0.736040000000     0.637280000000     0.451690000000     0.0454567  
H227     H      0.769640000000     0.606180000000     0.413790000000     0.0472114  
H228     H      0.832290000000     0.752380000000     0.476110000000     0.0934156  
H229     H      0.869670000000     0.731810000000     0.434810000000     0.0068067  
H230     H      0.756630000000     0.605530000000     0.474840000000     0.0501881  
H231     H      0.821260000000     0.630460000000     0.437460000000     0.0468353  
H232     H      0.945920000000     0.716880000000     0.183260000000     0.120669   
H233     H      0.899910000000     0.630960000000     0.183310000000     0.0518965  
H234     H      0.838230000000     0.605450000000     0.221780000000     0.0473976  
H235     H      0.928060000000     0.749120000000     0.158020000000     0.103798   
H236     H      0.862800000000     0.728640000000     0.193890000000     0.00183546 
H237     H      0.848150000000     0.602360000000     0.159890000000     0.0488998  
H238     H      0.810390000000     0.628300000000     0.197340000000     0.0425798  
H239     H      0.696400000000     0.650270000000     0.230550000000     0.0974746  
H240     H      0.701480000000     0.574760000000     0.231650000000     0.0477269  
H241     H      0.707060000000     0.551690000000     0.288760000000     0.0496393  
H242     H      0.644500000000     0.646710000000     0.244120000000     0.105296   
H243     H      0.656280000000     0.628560000000     0.300370000000    -0.00119924 
H244     H      0.651500000000     0.522370000000     0.243310000000     0.0535186  
H245     H      0.656070000000     0.551900000000     0.299980000000     0.0427736  
H246     H      0.993040000000     0.786340000000     0.399240000000     0.100816   
H247     H      0.999080000000     0.711260000000     0.397110000000     0.0501317  
H248     H      0.971250000000     0.677540000000     0.343400000000     0.0497166  
H249     H      0.039720000000     0.838190000000     0.383140000000     0.116354   
H250     H      0.022600000000     0.805650000000     0.326610000000     0.0158979  
H251     H      0.045960000000     0.713990000000     0.374810000000     0.0555977  
H252     H      0.017640000000     0.724640000000     0.322770000000     0.0504076  
H253     H      0.816880000000     0.044250000000     0.934800000000     0.0873675  
H254     H      0.739430000000     0.040480000000     0.932870000000     0.0470475  
H255     H      0.730380000000     0.064640000000     0.878390000000     0.0541761  
H256     H      0.821090000000     0.996280000000     0.920090000000     0.107042   
H257     H      0.806820000000     0.011790000000     0.862840000000     0.0134601  
H258     H      0.692710000000     0.992530000000     0.912920000000     0.0505897  
H259     H      0.728910000000     0.016070000000     0.859290000000     0.0465754  
H260     H      0.993780000000     0.371410000000     0.808340000000     0.0971881  
H261     H      0.918000000000     0.374520000000     0.809500000000     0.0511119  
H262     H      0.884200000000     0.365040000000     0.753370000000     0.0497414  
H263     H      0.989950000000     0.317270000000     0.800270000000     0.104708   
H264     H      0.961470000000     0.315490000000     0.744400000000    -0.0026485  
H265     H      0.865160000000     0.321720000000     0.805490000000     0.0578121  
H266     H      0.885630000000     0.312950000000     0.747960000000     0.0414933  
H267     H      0.031160000000     0.652220000000     0.662030000000     0.0870428  
H268     H      0.115710000000     0.660430000000     0.663070000000     0.0507249  
H269     H      0.168120000000     0.722130000000     0.700990000000     0.0483237  
H270     H      0.999430000000     0.632230000000     0.699740000000     0.0859806  
H271     H      0.052700000000     0.700080000000     0.729440000000    -0.00152767 
H272     H      0.129270000000     0.638690000000     0.699180000000     0.0552679  
H273     H      0.127110000000     0.697790000000     0.733550000000     0.042647   
H274     H      0.568520000000     0.681280000000     0.966590000000     0.0894243  
H275     H      0.650890000000     0.685570000000     0.970670000000     0.0465891  
H276     H      0.649580000000     0.633720000000     0.428530000000     0.0492912  
H277     H      0.563610000000     0.717510000000     0.936330000000     0.0987312  
H278     H      0.574870000000     0.674110000000     0.891480000000     0.00218723 
H279     H      0.691540000000     0.719310000000     0.939540000000     0.058567   
H280     H      0.644980000000     0.667550000000     0.896020000000     0.0533619  
H281     H      0.234520000000     0.033060000000     0.632720000000     0.0901125  
H282     H      0.317510000000     0.036230000000     0.636750000000     0.0473972  
H283     H      0.306370000000     0.967070000000     0.610490000000     0.0461537  
H284     H      0.223470000000     0.052570000000     0.594400000000     0.100299   
H285     H      0.222610000000     0.988870000000     0.564650000000     0.00450612 
H286     H      0.349890000000     0.052430000000     0.599180000000     0.0577949  
H287     H      0.294560000000     0.983760000000     0.571170000000     0.0459496  
H288     H      0.458110000000     0.328790000000     0.494400000000     0.0969816  
H289     H      0.381150000000     0.334310000000     0.992620000000     0.0486883  
H290     H      0.352940000000     0.321930000000     0.548970000000     0.0480562  
H291     H      0.509580000000     0.380190000000     0.505450000000     0.101826   
H292     H      0.479160000000     0.377420000000     0.561570000000    -0.00295077 
H293     H      0.386010000000     0.386740000000     0.507190000000     0.0552524  
H294     H      0.402380000000     0.372880000000     0.562940000000     0.0414259  
H295     H      0.733740000000     0.793300000000     0.806610000000     0.117421   
H296     H      0.648160000000     0.752940000000     0.807140000000     0.0642118  
H297     H      0.620630000000     0.800550000000     0.832480000000     0.0496344  
H298     H      0.764700000000     0.836160000000     0.775710000000     0.108406   
H299     H      0.741320000000     0.887320000000     0.800800000000     0.00614308 
H300     H      0.618890000000     0.767550000000     0.776530000000     0.0578666  
H301     H      0.648110000000     0.843850000000     0.801190000000     0.0431696  
H302     H      0.736410000000     0.859950000000     0.555130000000     0.0904348  
H303     H      0.639270000000     0.812120000000     0.551500000000     0.0530575  
H304     H      0.616170000000     0.851030000000     0.590280000000     0.0483304  
H305     H      0.762750000000     0.910810000000     0.529940000000     0.095467   
H306     H      0.730160000000     0.947070000000     0.564400000000    -0.00140492 
H307     H      0.617420000000     0.841700000000     0.527870000000     0.0510763  
H308     H      0.644780000000     0.903280000000     0.567130000000     0.0393129  
H309     H      0.710000000000     0.723720000000     0.591140000000     0.0878589  
H310     H      0.786160000000     0.803400000000     0.589540000000     0.055238   
H311     H      0.812060000000     0.834870000000     0.645440000000     0.0666405  
H312     H      0.712840000000     0.674990000000     0.605780000000     0.0896433  
H313     H      0.733770000000     0.707710000000     0.661000000000     1.1786e-05 
H314     H      0.837980000000     0.804510000000     0.600470000000     0.0612369  
H315     H      0.811300000000     0.783350000000     0.657970000000     0.0551176  
H316     H      0.658720000000     0.971590000000     0.747000000000     0.0874336  
H317     H      0.578890000000     0.896510000000     0.747590000000     0.0469292  
H318     H      0.528240000000     0.894140000000     0.702110000000     0.0479111  
H319     H      0.696870000000     0.978870000000     0.713720000000     0.0981126  
H320     H      0.645900000000     0.982840000000     0.673170000000    -0.000880124
H321     H      0.568000000000     0.852890000000     0.717750000000     0.0524077  
H322     H      0.571920000000     0.905100000000     0.672670000000     0.0425805  
H323     H      0.054680000000     0.518400000000     0.846380000000     0.0928897  
H324     H      0.957000000000     0.471580000000     0.844260000000     0.0517583  
H325     H      0.934550000000     0.514860000000     0.879780000000     0.0506985  
H326     H      0.080570000000     0.568070000000     0.820080000000     0.0931477  
H327     H      0.050310000000     0.606800000000     0.853810000000    -0.0054736  
H328     H      0.935270000000     0.499570000000     0.818710000000     0.0506298  
H329     H      0.965290000000     0.565160000000     0.854760000000     0.0396113  
H330     H      0.055920000000     0.529760000000     0.602240000000     0.0915429  
H331     H      0.956910000000     0.485070000000     0.600350000000     0.0533564  
H332     H      0.930020000000     0.418860000000     0.563920000000     0.0575317  
H333     H      0.075420000000     0.498360000000     0.626240000000     0.0960982  
H334     H      0.042910000000     0.434940000000     0.588360000000    -0.00428557 
H335     H      0.930630000000     0.433790000000     0.624900000000     0.051183   
H336     H      0.958550000000     0.395970000000     0.588280000000     0.043302   
H337     H      0.895350000000     0.553310000000     0.559100000000     0.0878815  
H338     H      0.971930000000     0.634960000000     0.556130000000     0.0485819  
H339     H      0.008160000000     0.635460000000     0.505030000000     0.0507294  
H340     H      0.846070000000     0.548570000000     0.538910000000     0.0968973  
H341     H      0.881420000000     0.557640000000     0.984520000000    -0.00241809 
H342     H      0.970620000000     0.677300000000     0.530100000000     0.0545233  
H343     H      0.963620000000     0.634560000000     0.480880000000     0.0434347  
H344     H      0.397720000000     0.124920000000     0.940430000000     0.100497   
H345     H      0.311840000000     0.082150000000     0.942000000000     0.0783134  
H346     H      0.281370000000     0.120130000000     0.976420000000     0.0521036  
H347     H      0.427260000000     0.176060000000     0.916110000000     0.0993556  
H348     H      0.404990000000     0.217590000000     0.953170000000     0.00220195 
H349     H      0.281420000000     0.101680000000     0.916380000000     0.0638154  
H350     H      0.307090000000     0.170230000000     0.950620000000     0.0443261  
H351     H      0.398730000000     0.206100000000     0.697570000000     0.0985207  
H352     H      0.299270000000     0.156140000000     0.693370000000     0.0505678  
H353     H      0.276630000000     0.194520000000     0.732680000000     0.0480233  
H354     H      0.423360000000     0.256840000000     0.672320000000     0.0998816  
H355     H      0.389590000000     0.291550000000     0.707080000000    -0.00345443 
H356     H      0.278660000000     0.186910000000     0.669920000000     0.0513961  
H357     H      0.304860000000     0.247070000000     0.709870000000     0.0403004  
H358     H      0.478540000000     0.123940000000     0.818780000000     0.0946961  
H359     H      0.402650000000     0.043970000000     0.817510000000     0.0522035  
H360     H      0.347710000000     0.054560000000     0.786200000000     0.05373    
H361     H      0.516930000000     0.138610000000     0.784580000000     0.103535   
H362     H      0.460110000000     0.141690000000     0.747810000000     0.00361815 
H363     H      0.389960000000     0.010890000000     0.780140000000     0.0490873  
H364     H      0.380940000000     0.067440000000     0.749090000000     0.0431936  
H365     H      0.048230000000     0.369080000000     0.453720000000     0.091309   
H366     H      0.128560000000     0.445940000000     0.953570000000     0.0621249  
H367     H      0.160480000000     0.469380000000     0.897340000000     0.0685638  
H368     H      0.001190000000     0.371580000000     0.935960000000     0.0980705  
H369     H      0.034990000000     0.386480000000     0.881470000000     0.00216093 
H370     H      0.129960000000     0.497450000000     0.940080000000     0.068896   
H371     H      0.108740000000     0.466210000000     0.883450000000     0.0572818  
H372     H      0.312620000000     0.312820000000     0.885210000000     0.0866619  
H373     H      0.235470000000     0.237710000000     0.886730000000     0.0479846  
H374     H      0.187770000000     0.225370000000     0.836270000000     0.052497   
H375     H      0.354810000000     0.317840000000     0.856000000000     0.0902217  
H376     H      0.306860000000     0.313570000000     0.809480000000     0.000685547
H377     H      0.228160000000     0.189960000000     0.862470000000     0.054279   
H378     H      0.234670000000     0.234210000000     0.810910000000     0.0451778  
H379     H      0.410840000000     0.438960000000     0.846870000000     0.120495   
H380     H      0.457970000000     0.400490000000     0.846880000000     0.0548411  
H381     H      0.517250000000     0.436700000000     0.806810000000     0.056571   
H382     H      0.428200000000     0.489280000000     0.871790000000     0.115013   
H383     H      0.492660000000     0.535030000000     0.835260000000     0.00970618 
H384     H      0.510620000000     0.425700000000     0.869210000000     0.0534183  
H385     H      0.546250000000     0.488100000000     0.830510000000     0.0434457  
H386     H      0.578540000000     0.620000000000     0.573970000000     0.0977032  
H387     H      0.622240000000     0.577850000000     0.577380000000     0.0510976  
H388     H      0.589450000000     0.512890000000     0.615350000000     0.050848   
H389     H      0.524850000000     0.594290000000     0.553150000000     0.0937706  
H390     H      0.488810000000     0.537850000000     0.595540000000     0.00165108 
H391     H      0.602200000000     0.525330000000     0.554470000000     0.0519414  
H392     H      0.537630000000     0.484870000000     0.591960000000     0.0483324  
H393     H      0.818280000000     0.203710000000     0.968500000000     0.0967809  
H394     H      0.863190000000     0.150210000000     0.965130000000     0.055165   
H395     H      0.935150000000     0.195360000000     0.935520000000     0.0657334  
H396     H      0.844990000000     0.250610000000     0.996790000000     0.0970021  
H397     H      0.913090000000     0.287850000000     0.963910000000    -0.000133696
H398     H      0.909780000000     0.169820000000     0.993720000000     0.0573411  
H399     H      0.952640000000     0.242330000000     0.964010000000     0.0544733  
H400     H      0.879340000000     0.161710000000     0.719270000000     0.0980787  
H401     H      0.829950000000     0.211640000000     0.723060000000     0.0466252  
H402     H      0.766260000000     0.171160000000     0.686260000000     0.0562874  
H403     H      0.854770000000     0.112060000000     0.745570000000     0.100337   
H404     H      0.785550000000     0.075360000000     0.712120000000     0.00913226 
H405     H      0.780220000000     0.182810000000     0.748200000000     0.054328   
H406     H      0.744150000000     0.119980000000     0.710510000000     0.0732287  
H407     H      0.212700000000     0.397000000000     0.746930000000     0.100599   
H408     H      0.175390000000     0.302150000000     0.747990000000     0.0503686  
H409     H      0.099880000000     0.269160000000     0.773250000000     0.0542488  
H410     H      0.191510000000     0.418430000000     0.715200000000     0.105466   
H411     H      0.115600000000     0.379400000000     0.739940000000     0.0235216  
H412     H      0.132820000000     0.271850000000     0.716900000000     0.0534048  
H413     H      0.081750000000     0.294780000000     0.742030000000     0.0556686  
H414     H      0.191900000000     0.395510000000     0.497210000000     0.0950988  
H415     H      0.148730000000     0.296410000000     0.499460000000     0.0523081  
H416     H      0.187020000000     0.277310000000     0.457550000000     0.0476018  
H417     H      0.244430000000     0.423050000000     0.519950000000     0.100043   
H418     H      0.279920000000     0.394820000000     0.481210000000    -0.000466682
H419     H      0.182770000000     0.277390000000     0.520280000000     0.0515964  
H420     H      0.240400000000     0.308650000000     0.478530000000     0.0396711  
H421     H      0.018090000000     0.226700000000     0.572860000000     0.0887143  
H422     H      0.020890000000     0.307570000000     0.573750000000     0.0500205  
H423     H      0.967620000000     0.302270000000     0.615940000000     0.0510564  
H424     H      0.052460000000     0.218130000000     0.602460000000     0.0999212  
H425     H      0.005840000000     0.221850000000     0.648030000000     0.00424465 
H426     H      0.052520000000     0.346050000000     0.606720000000     0.0586127  
H427     H      0.999790000000     0.294580000000     0.647970000000     0.0517074  
H428     H      0.333670000000     0.450380000000     0.696450000000     0.0973335  
H429     H      0.339240000000     0.374120000000     0.694430000000     0.0536788  
H430     H      0.322450000000     0.346850000000     0.637780000000     0.0484784  
H431     H      0.383410000000     0.503110000000     0.685160000000     0.112425   
H432     H      0.377020000000     0.474870000000     0.627530000000     0.00553618 
H433     H      0.389870000000     0.378850000000     0.676900000000     0.0565893  
H434     H      0.372080000000     0.396720000000     0.622780000000     0.0419469  
H435     H      0.621160000000     0.052060000000     0.861050000000     0.0884357  
H436     H      0.575250000000     0.966350000000     0.860230000000     0.0438042  
H437     H      0.509630000000     0.940220000000     0.895190000000     0.0464748  
H438     H      0.606130000000     0.084830000000     0.833950000000     0.0956893  
H439     H      0.537160000000     0.063620000000     0.865890000000     0.00241176 
H440     H      0.525960000000     0.938070000000     0.834230000000     0.0470343  
H441     H      0.484690000000     0.963790000000     0.868440000000     0.0422068  
H442     H      0.461970000000     0.068160000000     0.629980000000     0.090802   
H443     H      0.414690000000     0.981620000000     0.627910000000     0.0445097  
H444     H      0.444010000000     0.946340000000     0.589750000000     0.0439866  
H445     H      0.516310000000     0.094790000000     0.649930000000     0.0949505  
H446     H      0.548560000000     0.070080000000     0.607500000000     0.00435161 
H447     H      0.433520000000     0.948180000000     0.650680000000     0.047378   
H448     H      0.496650000000     0.969760000000     0.612130000000     0.0448465  
H449     H      0.654110000000     0.112890000000     0.572710000000     0.0966821  
H450     H      0.656550000000     0.035440000000     0.571630000000     0.051371   
H451     H      0.639960000000     0.007630000000     0.515140000000     0.0481536  
H452     H      0.705070000000     0.164760000000     0.561790000000     0.105016   
H453     H      0.698940000000     0.136270000000     0.004250000000     0.00549312 
H454     H      0.706530000000     0.037740000000     0.554940000000     0.055994   
H455     H      0.690960000000     0.056110000000     0.500290000000     0.0437748  
H456     H      0.232900000000     0.956020000000     0.765050000000     0.0890975  
H457     H      0.277860000000     0.914800000000     0.767700000000     0.04511    
H458     H      0.243570000000     0.847060000000     0.803310000000     0.0460369  
H459     H      0.180560000000     0.931110000000     0.742420000000     0.0966424  
H460     H      0.143250000000     0.870270000000     0.782100000000     0.00839499 
H461     H      0.259700000000     0.863930000000     0.743200000000     0.0475228  
H462     H      0.192820000000     0.820730000000     0.778590000000     0.046163   
H463     H      0.071960000000     0.777010000000     0.533490000000     0.0882064  
H464     H      0.118800000000     0.738200000000     0.534090000000     0.0463203  
H465     H      0.181890000000     0.777570000000     0.496980000000     0.049883   
H466     H      0.087280000000     0.825340000000     0.560140000000     0.104841   
H467     H      0.155260000000     0.873400000000     0.526940000000     0.0113216  
H468     H      0.169490000000     0.761470000000     0.558670000000     0.0498759  
H469     H      0.208120000000     0.827140000000     0.522790000000     0.0430309  
H470     H      0.333440000000     0.975520000000     0.981690000000     0.0891116  
H471     H      0.326830000000     0.893600000000     0.981340000000     0.0462423  
H472     H      0.312550000000     0.859390000000     0.925430000000     0.0493747  
H473     H      0.382310000000     0.021560000000     0.462190000000     0.0957019  
H474     H      0.358570000000     0.986090000000     0.908300000000    -0.00269612 
H475     H      0.374390000000     0.889900000000     0.965750000000     0.0500703  
H476     H      0.360960000000     0.910030000000     0.909650000000     0.0414409  
H477     H      0.779180000000     0.723410000000     0.954470000000     0.08901    
H478     H      0.736040000000     0.637270000000     0.951690000000     0.0454296  
H479     H      0.769650000000     0.606180000000     0.913790000000     0.0472182  
H480     H      0.832290000000     0.752380000000     0.976110000000     0.0933839  
H481     H      0.869670000000     0.731810000000     0.934810000000     0.00681777 
H482     H      0.756630000000     0.605520000000     0.974840000000     0.050121   
H483     H      0.821260000000     0.630460000000     0.937460000000     0.0468212  
H484     H      0.945920000000     0.716880000000     0.683260000000     0.120687   
H485     H      0.899900000000     0.630950000000     0.683310000000     0.0518929  
H486     H      0.838240000000     0.605450000000     0.721780000000     0.0473953  
H487     H      0.928060000000     0.749120000000     0.658020000000     0.103789   
H488     H      0.862800000000     0.728650000000     0.693890000000     0.00189737 
H489     H      0.848150000000     0.602360000000     0.659890000000     0.048896   
H490     H      0.810390000000     0.628290000000     0.697340000000     0.0425782  
H491     H      0.696400000000     0.650260000000     0.730550000000     0.0974652  
H492     H      0.701480000000     0.574760000000     0.731650000000     0.0476916  
H493     H      0.707060000000     0.551690000000     0.788760000000     0.0496504  
H494     H      0.644500000000     0.646710000000     0.744110000000     0.105294   
H495     H      0.656280000000     0.628560000000     0.800370000000    -0.00118837 
H496     H      0.651500000000     0.522370000000     0.743310000000     0.0534917  
H497     H      0.656080000000     0.551890000000     0.799980000000     0.0427893  
H498     H      0.993040000000     0.786350000000     0.899240000000     0.100815   
H499     H      0.999080000000     0.711260000000     0.897120000000     0.0501012  
H500     H      0.971250000000     0.677540000000     0.843400000000     0.0497496  
H501     H      0.039720000000     0.838190000000     0.883140000000     0.11634    
H502     H      0.022600000000     0.805650000000     0.826610000000     0.0159191  
H503     H      0.045960000000     0.714000000000     0.874810000000     0.0555806  
H504     H      0.017640000000     0.724640000000     0.822770000000     0.0504385  
N1       N      0.794520000000     0.065740000000     0.375270000000    -0.196464   
N2       N      0.754470000000     0.989630000000     0.417690000000    -0.157819   
N3       N      0.951130000000     0.372040000000     0.249810000000    -0.198568   
N4       N      0.926210000000     0.316390000000     0.305860000000    -0.155361   
N5       N      0.106430000000     0.725440000000     0.194790000000    -0.198371   
N6       N      0.061450000000     0.629610000000     0.197250000000    -0.159089   
N7       N      0.584760000000     0.630660000000     0.424040000000    -0.199031   
N8       N      0.629960000000     0.723240000000     0.440930000000    -0.157256   
N9       N      0.241230000000     0.963080000000     0.105780000000    -0.199676   
N10      N      0.289750000000     0.058630000000     0.099320000000    -0.156642   
N11      N      0.414990000000     0.318960000000     0.051950000000    -0.198821   
N12      N      0.448800000000     0.385650000000     0.002250000000    -0.157421   
N13      N      0.693900000000     0.839730000000     0.334690000000    -0.198753   
N14      N      0.691900000000     0.803050000000     0.272830000000    -0.151308   
N15      N      0.689290000000     0.888080000000     0.093330000000    -0.199335   
N16      N      0.690050000000     0.869760000000     0.026220000000    -0.158888   
N17      N      0.745670000000     0.773900000000     0.149250000000    -0.195344   
N18      N      0.776940000000     0.737900000000     0.100380000000    -0.15919    
N19      N      0.588960000000     0.961140000000     0.204640000000    -0.199681   
N20      N      0.634930000000     0.913490000000     0.216180000000    -0.15934    
N21      N      0.007500000000     0.549120000000     0.383240000000    -0.200478   
N22      N      0.007880000000     0.526800000000     0.316960000000    -0.158447   
N23      N      0.003070000000     0.455310000000     0.061090000000    -0.199875   
N24      N      0.003410000000     0.474110000000     0.128170000000    -0.157565   
N25      N      0.945340000000     0.570780000000     0.002630000000    -0.199075   
N26      N      0.906750000000     0.615210000000     0.037500000000    -0.158299   
N27      N      0.353990000000     0.161780000000     0.479990000000    -0.195257   
N28      N      0.354360000000     0.140360000000     0.413110000000    -0.153086   
N29      N      0.349670000000     0.232150000000     0.235880000000    -0.199079   
N30      N      0.351030000000     0.213740000000     0.168650000000    -0.157662   
N31      N      0.409160000000     0.120640000000     0.284550000000    -0.198132   
N32      N      0.455750000000     0.072070000000     0.282400000000    -0.158189   
N33      N      0.100910000000     0.401490000000     0.395520000000    -0.194975   
N34      N      0.063790000000     0.436020000000     0.441000000000    -0.155249   
N35      N      0.246740000000     0.293840000000     0.336910000000    -0.198458   
N36      N      0.293980000000     0.251570000000     0.359140000000    -0.16089    
N37      N      0.487800000000     0.480460000000     0.306300000000    -0.194809   
N38      N      0.471380000000     0.459480000000     0.373690000000    -0.154648   
N39      N      0.546580000000     0.542610000000     0.118970000000    -0.192685   
N40      N      0.561590000000     0.557750000000     0.050740000000    -0.158256   
N41      N      0.898640000000     0.232270000000     0.432510000000    -0.194109   
N42      N      0.869720000000     0.202800000000     0.497180000000    -0.15681    
N43      N      0.801800000000     0.133400000000     0.182520000000    -0.193431   
N44      N      0.825470000000     0.155350000000     0.249190000000    -0.156276   
N45      N      0.130220000000     0.342570000000     0.275460000000    -0.195063   
N46      N      0.167720000000     0.345580000000     0.214020000000    -0.156937   
N47      N      0.219570000000     0.350890000000     0.955010000000    -0.199599   
N48      N      0.206180000000     0.349660000000     0.023160000000    -0.157678   
N49      N      0.964430000000     0.236570000000     0.117150000000    -0.197374   
N50      N      0.057490000000     0.284840000000     0.102780000000    -0.157254   
N51      N      0.319830000000     0.409700000000     0.137340000000    -0.198714   
N52      N      0.389870000000     0.442290000000     0.184360000000    -0.153093   
N53      N      0.539580000000     0.013770000000     0.396400000000    -0.197258   
N54      N      0.564180000000     0.011530000000     0.330850000000    -0.159347   
N55      N      0.488460000000     0.018840000000     0.084960000000    -0.194945   
N56      N      0.476610000000     0.021420000000     0.153450000000    -0.15908    
N57      N      0.640300000000     0.071990000000     0.013690000000    -0.196304   
N58      N      0.709190000000     0.102630000000     0.061370000000    -0.15614    
N59      N      0.200660000000     0.876780000000     0.307250000000    -0.194423   
N60      N      0.218620000000     0.895950000000     0.239530000000    -0.15843    
N61      N      0.151600000000     0.820630000000     0.996390000000    -0.196564   
N62      N      0.130100000000     0.795140000000     0.062750000000    -0.157563   
N63      N      0.307010000000     0.920750000000     0.423910000000    -0.197377   
N64      N      0.382060000000     0.957640000000     0.466860000000    -0.158176   
N65      N      0.812200000000     0.679190000000     0.410530000000    -0.194836   
N66      N      0.796490000000     0.678860000000     0.478340000000    -0.159896   
N67      N      0.867920000000     0.678970000000     0.222740000000    -0.196773   
N68      N      0.886010000000     0.675770000000     0.156000000000    -0.156221   
N69      N      0.711490000000     0.618150000000     0.290160000000    -0.197872   
N70      N      0.644510000000     0.582710000000     0.240920000000    -0.156187   
N71      N      0.968970000000     0.740470000000     0.341180000000    -0.194336   
N72      N      0.046930000000     0.777960000000     0.381440000000    -0.153822   
N73      N      0.794520000000     0.065740000000     0.875270000000    -0.196514   
N74      N      0.754470000000     0.989630000000     0.917690000000    -0.1578     
N75      N      0.951130000000     0.372040000000     0.749810000000    -0.198568   
N76      N      0.926210000000     0.316390000000     0.805860000000    -0.155385   
N77      N      0.106430000000     0.725440000000     0.694790000000    -0.198374   
N78      N      0.061450000000     0.629610000000     0.697250000000    -0.159101   
N79      N      0.584760000000     0.630660000000     0.924040000000    -0.19902    
N80      N      0.629960000000     0.723240000000     0.940920000000    -0.157262   
N81      N      0.241230000000     0.963080000000     0.605780000000    -0.199673   
N82      N      0.289750000000     0.058630000000     0.599320000000    -0.156642   
N83      N      0.414990000000     0.318960000000     0.551950000000    -0.198824   
N84      N      0.448800000000     0.385650000000     0.502250000000    -0.157451   
N85      N      0.693900000000     0.839730000000     0.834690000000    -0.198743   
N86      N      0.691900000000     0.803050000000     0.772830000000    -0.151294   
N87      N      0.689290000000     0.888080000000     0.593330000000    -0.199316   
N88      N      0.690050000000     0.869760000000     0.526220000000    -0.158964   
N89      N      0.745670000000     0.773890000000     0.649250000000    -0.195329   
N90      N      0.776950000000     0.737900000000     0.600380000000    -0.159246   
N91      N      0.588960000000     0.961140000000     0.704640000000    -0.199635   
N92      N      0.634930000000     0.913490000000     0.716180000000    -0.159322   
N93      N      0.007500000000     0.549120000000     0.883240000000    -0.200482   
N94      N      0.007880000000     0.526800000000     0.816960000000    -0.158448   
N95      N      0.003070000000     0.455300000000     0.561090000000    -0.199754   
N96      N      0.003410000000     0.474120000000     0.628180000000    -0.157655   
N97      N      0.945340000000     0.570780000000     0.502630000000    -0.1991     
N98      N      0.906750000000     0.615210000000     0.537500000000    -0.158271   
N99      N      0.353990000000     0.161780000000     0.979990000000    -0.195296   
N100     N      0.354360000000     0.140360000000     0.913110000000    -0.153083   
N101     N      0.349670000000     0.232150000000     0.735880000000    -0.199077   
N102     N      0.351030000000     0.213740000000     0.668650000000    -0.157662   
N103     N      0.409160000000     0.120640000000     0.784550000000    -0.198138   
N104     N      0.455750000000     0.072070000000     0.782400000000    -0.158222   
N105     N      0.100900000000     0.401490000000     0.895520000000    -0.194942   
N106     N      0.063790000000     0.436020000000     0.941000000000    -0.155227   
N107     N      0.246740000000     0.293840000000     0.836910000000    -0.19848    
N108     N      0.293980000000     0.251570000000     0.859140000000    -0.160867   
N109     N      0.487800000000     0.480460000000     0.806290000000    -0.194788   
N110     N      0.471380000000     0.459480000000     0.873690000000    -0.15466    
N111     N      0.546580000000     0.542610000000     0.618970000000    -0.192694   
N112     N      0.561590000000     0.557750000000     0.550740000000    -0.158261   
N113     N      0.898640000000     0.232270000000     0.932510000000    -0.194109   
N114     N      0.869720000000     0.202800000000     0.997180000000    -0.156792   
N115     N      0.801800000000     0.133400000000     0.682520000000    -0.193412   
N116     N      0.825470000000     0.155350000000     0.749190000000    -0.156246   
N117     N      0.130220000000     0.342570000000     0.775460000000    -0.195068   
N118     N      0.167720000000     0.345580000000     0.714020000000    -0.156934   
N119     N      0.219570000000     0.350890000000     0.455010000000    -0.19961    
N120     N      0.206180000000     0.349660000000     0.523160000000    -0.157655   
N121     N      0.964430000000     0.236570000000     0.617150000000    -0.197374   
N122     N      0.057480000000     0.284840000000     0.602780000000    -0.157203   
N123     N      0.319830000000     0.409700000000     0.637340000000    -0.198751   
N124     N      0.389870000000     0.442290000000     0.684360000000    -0.153086   
N125     N      0.539580000000     0.013770000000     0.896400000000    -0.197252   
N126     N      0.564170000000     0.011530000000     0.830850000000    -0.159351   
N127     N      0.488460000000     0.018840000000     0.584960000000    -0.194946   
N128     N      0.476610000000     0.021420000000     0.653450000000    -0.159103   
N129     N      0.640300000000     0.071990000000     0.513690000000    -0.196317   
N130     N      0.709190000000     0.102630000000     0.561370000000    -0.156146   
N131     N      0.200660000000     0.876780000000     0.807250000000    -0.19441    
N132     N      0.218620000000     0.895940000000     0.739530000000    -0.158471   
N133     N      0.151600000000     0.820630000000     0.496390000000    -0.196446   
N134     N      0.130100000000     0.795140000000     0.562750000000    -0.157578   
N135     N      0.307010000000     0.920750000000     0.923910000000    -0.197401   
N136     N      0.382060000000     0.957640000000     0.966860000000    -0.158181   
N137     N      0.812200000000     0.679190000000     0.910530000000    -0.194838   
N138     N      0.796490000000     0.678860000000     0.978340000000    -0.159954   
N139     N      0.867920000000     0.678970000000     0.722740000000    -0.19675    
N140     N      0.886010000000     0.675770000000     0.656000000000    -0.156196   
N141     N      0.711490000000     0.618150000000     0.790170000000    -0.197878   
N142     N      0.644510000000     0.582710000000     0.740920000000    -0.156213   
N143     N      0.968970000000     0.740470000000     0.841180000000    -0.194303   
N144     N      0.046930000000     0.777950000000     0.881440000000    -0.153865   
Ni1      Ni     0.836990000000     0.642690000000     0.319690000000     0.996552   
Ni2      Ni     0.842760000000     0.715480000000     0.313310000000     1.07202    
Ni3      Ni     0.180640000000     0.816300000000     0.398560000000     1.00383    
Ni4      Ni     0.173500000000     0.882410000000     0.405510000000     1.0446     
Ni5      Ni     0.506950000000     0.978000000000     0.993540000000     0.992003   
Ni6      Ni     0.515440000000     0.051930000000     0.986940000000     1.06174    
Ni7      Ni     0.186830000000     0.311530000000     0.120560000000     1.00188    
Ni8      Ni     0.190870000000     0.383890000000     0.117130000000     1.04185    
Ni9      Ni     0.839400000000     0.135420000000     0.086020000000     1.04375    
Ni10     Ni     0.833460000000     0.202090000000     0.093950000000     1.0054     
Ni11     Ni     0.521260000000     0.479100000000     0.209230000000     1.01316    
Ni12     Ni     0.513160000000     0.544670000000     0.216230000000     1.03959    
Ni13     Ni     0.204620000000     0.385000000000     0.360780000000     1.05955    
Ni14     Ni     0.142570000000     0.310140000000     0.370630000000     1.02277    
Ni15     Ni     0.388590000000     0.217830000000     0.328770000000     1.03755    
Ni16     Ni     0.315490000000     0.152970000000     0.319680000000     1.01844    
Ni17     Ni     0.041000000000     0.535360000000     0.977900000000     1.0295     
Ni18     Ni     0.968310000000     0.470670000000     0.967240000000     1.03796    
Ni19     Ni     0.727580000000     0.876240000000     0.186830000000     1.04552    
Ni20     Ni     0.653750000000     0.812080000000     0.178620000000     1.02693    
Ni21     Ni     0.874050000000     0.713390000000     0.062280000000     1.02376    
Ni22     Ni     0.808710000000     0.640510000000     0.071880000000     1.0109     
Ni23     Ni     0.553180000000     0.053630000000     0.238120000000     1.02909    
Ni24     Ni     0.489170000000     0.979290000000     0.245730000000     1.00153    
Ni25     Ni     0.316620000000     0.185960000000     0.070950000000     0.997987   
Ni26     Ni     0.388260000000     0.190500000000     0.077770000000     1.05173    
Ni27     Ni     0.484600000000     0.513280000000     0.966390000000     1.03487    
Ni28     Ni     0.547840000000     0.502230000000     0.958510000000     1.0027     
Ni29     Ni     0.142770000000     0.851090000000     0.154620000000     1.04319    
Ni30     Ni     0.205470000000     0.838940000000     0.147880000000     0.996827   
Ni31     Ni     0.968990000000     0.496070000000     0.220430000000     1.00181    
Ni32     Ni     0.042740000000     0.504850000000     0.224790000000     1.03792    
Ni33     Ni     0.828130000000     0.195460000000     0.345080000000     1.02035    
Ni34     Ni     0.893460000000     0.187870000000     0.337540000000     1.03313    
Ni35     Ni     0.656520000000     0.854460000000     0.428070000000     1.00264    
Ni36     Ni     0.728330000000     0.858660000000     0.432570000000     1.04524    
Ni37     Ni     0.836990000000     0.642690000000     0.819690000000     0.99658    
Ni38     Ni     0.842760000000     0.715480000000     0.813310000000     1.07184    
Ni39     Ni     0.180640000000     0.816300000000     0.898550000000     1.00385    
Ni40     Ni     0.173500000000     0.882410000000     0.905510000000     1.04488    
Ni41     Ni     0.506950000000     0.978000000000     0.493540000000     0.992168   
Ni42     Ni     0.515440000000     0.051930000000     0.486930000000     1.0618     
Ni43     Ni     0.186830000000     0.311530000000     0.620560000000     1.00187    
Ni44     Ni     0.190870000000     0.383890000000     0.617130000000     1.04184    
Ni45     Ni     0.839400000000     0.135420000000     0.586020000000     1.0438     
Ni46     Ni     0.833450000000     0.202090000000     0.593950000000     1.00544    
Ni47     Ni     0.521260000000     0.479100000000     0.709230000000     1.01326    
Ni48     Ni     0.513160000000     0.544680000000     0.716230000000     1.03971    
Ni49     Ni     0.204620000000     0.385000000000     0.860780000000     1.05955    
Ni50     Ni     0.142570000000     0.310140000000     0.870630000000     1.02275    
Ni51     Ni     0.388590000000     0.217830000000     0.828770000000     1.03756    
Ni52     Ni     0.315490000000     0.152970000000     0.819680000000     1.01829    
Ni53     Ni     0.041000000000     0.535360000000     0.477900000000     1.02962    
Ni54     Ni     0.968310000000     0.470670000000     0.467240000000     1.03792    
Ni55     Ni     0.727580000000     0.876240000000     0.686830000000     1.04533    
Ni56     Ni     0.653750000000     0.812080000000     0.678620000000     1.02697    
Ni57     Ni     0.874050000000     0.713390000000     0.562280000000     1.02377    
Ni58     Ni     0.808710000000     0.640510000000     0.571880000000     1.01084    
Ni59     Ni     0.553180000000     0.053630000000     0.738120000000     1.02897    
Ni60     Ni     0.489170000000     0.979290000000     0.745730000000     1.00157    
Ni61     Ni     0.316620000000     0.185960000000     0.570950000000     0.997974   
Ni62     Ni     0.388260000000     0.190500000000     0.577770000000     1.05172    
Ni63     Ni     0.484600000000     0.513280000000     0.466390000000     1.03491    
Ni64     Ni     0.547840000000     0.502230000000     0.458510000000     1.00286    
Ni65     Ni     0.142770000000     0.851080000000     0.654620000000     1.04309    
Ni66     Ni     0.205480000000     0.838940000000     0.647880000000     0.996857   
Ni67     Ni     0.968990000000     0.496070000000     0.720430000000     1.00198    
Ni68     Ni     0.042740000000     0.504850000000     0.724790000000     1.03791    
Ni69     Ni     0.828130000000     0.195460000000     0.845080000000     1.02044    
Ni70     Ni     0.893460000000     0.187870000000     0.837540000000     1.03294    
Ni71     Ni     0.656520000000     0.854460000000     0.928070000000     1.00244    
Ni72     Ni     0.728320000000     0.858660000000     0.932570000000     1.04524    
O1       O      0.851750000000     0.645490000000     0.273860000000    -0.452671   
O2       O      0.821470000000     0.644090000000     0.365060000000    -0.450578   
O3       O      0.774410000000     0.615750000000     0.307730000000    -0.45359    
O4       O      0.900650000000     0.674860000000     0.331000000000    -0.445637   
O5       O      0.905190000000     0.742410000000     0.325160000000    -0.388398   
O6       O      0.779370000000     0.683510000000     0.301820000000    -0.402881   
O7       O      0.827900000000     0.712580000000     0.359170000000    -0.395456   
O8       O      0.858390000000     0.714150000000     0.268000000000    -0.409852   
O9       O      0.168040000000     0.804490000000     0.444850000000    -0.447575   
O10      O      0.193800000000     0.832980000000     0.352760000000    -0.447687   
O11      O      0.243610000000     0.853700000000     0.408890000000    -0.453575   
O12      O      0.116500000000     0.782920000000     0.388880000000    -0.437518   
O13      O      0.110570000000     0.845120000000     0.395440000000    -0.428442   
O14      O      0.237540000000     0.915780000000     0.415120000000    -0.400897   
O15      O      0.185830000000     0.894000000000     0.359150000000    -0.398203   
O16      O      0.160320000000     0.865730000000     0.451280000000    -0.406978   
O17      O      0.520560000000     0.979600000000     0.447410000000    -0.451002   
O18      O      0.493210000000     0.981050000000     0.039250000000    -0.449399   
O19      O      0.444350000000     0.952960000000     0.482560000000    -0.449149   
O20      O      0.570710000000     0.008090000000     0.003930000000    -0.448006   
O21      O      0.577980000000     0.076820000000     0.997920000000    -0.387852   
O22      O      0.451630000000     0.021780000000     0.476470000000    -0.438414   
O23      O      0.502280000000     0.050590000000     0.033050000000    -0.398258   
O24      O      0.529610000000     0.049210000000     0.441410000000    -0.40939    
O25      O      0.176010000000     0.312280000000     0.167080000000    -0.443654   
O26      O      0.196560000000     0.315180000000     0.073710000000    -0.445837   
O27      O      0.251320000000     0.344120000000     0.128290000000    -0.450121   
O28      O      0.123230000000     0.283840000000     0.112690000000    -0.446194   
O29      O      0.126270000000     0.351080000000     0.109390000000    -0.439769   
O30      O      0.254560000000     0.411360000000     0.125380000000    -0.402806   
O31      O      0.201700000000     0.383470000000     0.070850000000    -0.441774   
O32      O      0.180630000000     0.380280000000     0.163590000000    -0.442792   
O33      O      0.857260000000     0.155240000000     0.041300000000    -0.442089   
O34      O      0.822210000000     0.120370000000     0.131360000000    -0.395127   
O35      O      0.776400000000     0.104330000000     0.073020000000    -0.438761   
O36      O      0.901370000000     0.170750000000     0.099550000000    -0.396154   
O37      O      0.896360000000     0.233310000000     0.106670000000    -0.44973    
O38      O      0.771660000000     0.167060000000     0.080560000000    -0.444956   
O39      O      0.815710000000     0.182120000000     0.138800000000    -0.446486   
O40      O      0.850360000000     0.216860000000     0.048430000000    -0.441569   
O41      O      0.537930000000     0.497810000000     0.164180000000    -0.448086   
O42      O      0.505190000000     0.465200000000     0.254840000000    -0.443902   
O43      O      0.458020000000     0.446160000000     0.196600000000    -0.434719   
O44      O      0.583320000000     0.516190000000     0.222370000000    -0.445208   
O45      O      0.576200000000     0.577770000000     0.228490000000    -0.435508   
O46      O      0.451270000000     0.507850000000     0.203430000000    -0.430696   
O47      O      0.496760000000     0.525990000000     0.261400000000    -0.410729   
O48      O      0.528970000000     0.558260000000     0.170460000000    -0.397671   
O49      O      0.224080000000     0.384820000000     0.405050000000    -0.403762   
O50      O      0.180580000000     0.380570000000     0.317280000000    -0.414137   
O51      O      0.167190000000     0.408180000000     0.376330000000    -0.439481   
O52      O      0.238430000000     0.356670000000     0.346060000000    -0.403737   
O53      O      0.180100000000     0.287050000000     0.355240000000    -0.459355   
O54      O      0.108710000000     0.338570000000     0.385140000000    -0.403394   
O55      O      0.123390000000     0.310020000000     0.326210000000    -0.446114   
O56      O      0.166690000000     0.314540000000     0.414230000000    -0.450627   
O57      O      0.388060000000     0.192710000000     0.371460000000    -0.441101   
O58      O      0.384920000000     0.238260000000     0.285440000000    -0.401234   
O59      O      0.358230000000     0.248340000000     0.346400000000    -0.44451    
O60      O      0.413680000000     0.183480000000     0.310050000000    -0.398633   
O61      O      0.345720000000     0.122630000000     0.301650000000    -0.447272   
O62      O      0.290300000000     0.187090000000     0.338170000000    -0.453305   
O63      O      0.316190000000     0.178400000000     0.276940000000    -0.449352   
O64      O      0.319170000000     0.132730000000     0.363290000000    -0.437266   
O65      O      0.037640000000     0.510210000000     0.021030000000    -0.41251    
O66      O      0.040270000000     0.555500000000     0.433880000000    -0.410621   
O67      O      0.009800000000     0.566310000000     0.993120000000    -0.450265   
O68      O      0.067010000000     0.500610000000     0.461650000000    -0.431964   
O69      O      0.999360000000     0.439640000000     0.452080000000    -0.440234   
O70      O      0.942300000000     0.505530000000     0.983190000000    -0.410139   
O71      O      0.971970000000     0.495620000000     0.423960000000    -0.449354   
O72      O      0.969060000000     0.450570000000     0.011340000000    -0.444082   
O73      O      0.724440000000     0.895140000000     0.142980000000    -0.405601   
O74      O      0.726450000000     0.852760000000     0.230040000000    -0.44401    
O75      O      0.751590000000     0.839920000000     0.169780000000    -0.442356   
O76      O      0.698250000000     0.908550000000     0.203180000000    -0.438246   
O77      O      0.629640000000     0.848130000000     0.195390000000    -0.453674   
O78      O      0.682880000000     0.779620000000     0.162640000000    -0.401518   
O79      O      0.656750000000     0.793630000000     0.222860000000    -0.437678   
O80      O      0.655250000000     0.835720000000     0.135110000000    -0.447879   
O81      O      0.893150000000     0.710830000000     0.106260000000    -0.442624   
O82      O      0.849980000000     0.711840000000     0.019110000000    -0.442779   
O83      O      0.840440000000     0.740420000000     0.078970000000    -0.445966   
O84      O      0.903790000000     0.681080000000     0.046620000000    -0.441021   
O85      O      0.842280000000     0.613460000000     0.055590000000    -0.449952   
O86      O      0.779050000000     0.672600000000     0.087670000000    -0.446826   
O87      O      0.789710000000     0.643050000000     0.027760000000    -0.446934   
O88      O      0.832700000000     0.642250000000     0.115130000000    -0.447068   
O89      O      0.572530000000     0.048450000000     0.281600000000    -0.439308   
O90      O      0.528770000000     0.054240000000     0.195330000000    -0.439282   
O91      O      0.518470000000     0.077730000000     0.257270000000    -0.448348   
O92      O      0.584400000000     0.024510000000     0.219820000000    -0.407238   
O93      O      0.524350000000     0.955350000000     0.226800000000    -0.456774   
O94      O      0.458110000000     0.008650000000     0.264270000000    -0.446182   
O95      O      0.469660000000     0.984300000000     0.202340000000    -0.448649   
O96      O      0.513270000000     0.978530000000     0.288460000000    -0.447466   
O97      O      0.318960000000     0.171660000000     0.025240000000    -0.447148   
O98      O      0.318430000000     0.199210000000     0.117210000000    -0.44515    
O99      O      0.349380000000     0.250340000000     0.060880000000    -0.450042   
O100     O      0.288900000000     0.122650000000     0.081730000000    -0.445717   
O101     O      0.355520000000     0.126340000000     0.088570000000    -0.439514   
O102     O      0.415920000000     0.253760000000     0.066700000000    -0.397872   
O103     O      0.386340000000     0.205380000000     0.123210000000    -0.439972   
O104     O      0.386120000000     0.176460000000     0.031720000000    -0.397212   
O105     O      0.509480000000     0.538490000000     0.008990000000    -0.441437   
O106     O      0.464490000000     0.488610000000     0.423070000000    -0.432012   
O107     O      0.452900000000     0.452670000000     0.985010000000    -0.441506   
O108     O      0.520140000000     0.572420000000     0.447160000000    -0.408081   
O109     O      0.579760000000     0.562970000000     0.440290000000    -0.450447   
O110     O      0.512300000000     0.442960000000     0.977470000000    -0.445707   
O111     O      0.523170000000     0.477600000000     0.415650000000    -0.44129    
O112     O      0.567680000000     0.526600000000     0.002020000000    -0.444838   
O113     O      0.167870000000     0.877940000000     0.196880000000    -0.435843   
O114     O      0.122400000000     0.824530000000     0.111790000000    -0.430685   
O115     O      0.110660000000     0.791500000000     0.174810000000    -0.402639   
O116     O      0.178530000000     0.909040000000     0.133710000000    -0.406171   
O117     O      0.237570000000     0.898450000000     0.127720000000    -0.451453   
O118     O      0.169620000000     0.780850000000     0.168470000000    -0.455925   
O119     O      0.180540000000     0.812400000000     0.105520000000    -0.443392   
O120     O      0.225730000000     0.865320000000     0.190850000000    -0.446683   
O121     O      0.969110000000     0.480900000000     0.174840000000    -0.446226   
O122     O      0.973120000000     0.510720000000     0.266380000000    -0.449011   
O123     O      0.998240000000     0.560050000000     0.209030000000    -0.443111   
O124     O      0.945070000000     0.433350000000     0.232270000000    -0.45375    
O125     O      0.013720000000     0.441130000000     0.236180000000    -0.403138   
O126     O      0.066780000000     0.567440000000     0.213200000000    -0.450942   
O127     O      0.042480000000     0.519960000000     0.270440000000    -0.439976   
O128     O      0.038490000000     0.490190000000     0.178740000000    -0.441178   
O129     O      0.811860000000     0.175340000000     0.300300000000    -0.443917   
O130     O      0.849480000000     0.216610000000     0.389100000000    -0.407203   
O131     O      0.863020000000     0.256590000000     0.329060000000    -0.438937   
O132     O      0.797170000000     0.133050000000     0.360500000000    -0.445387   
O133     O      0.858570000000     0.126750000000     0.353580000000    -0.404529   
O134     O      0.924370000000     0.250070000000     0.321960000000    -0.434428   
O135     O      0.909950000000     0.208450000000     0.382220000000    -0.432217   
O136     O      0.872200000000     0.166910000000     0.293470000000    -0.438282   
O137     O      0.657590000000     0.861150000000     0.475150000000    -0.447382   
O138     O      0.659620000000     0.846560000000     0.381400000000    -0.451271   
O139     O      0.629050000000     0.789990000000     0.433650000000    -0.448066   
O140     O      0.688990000000     0.919890000000     0.422660000000    -0.445152   
O141     O      0.755810000000     0.923270000000     0.426560000000    -0.436617   
O142     O      0.695730000000     0.793190000000     0.438120000000    -0.438946   
O143     O      0.726960000000     0.851160000000     0.385750000000    -0.402799   
O144     O      0.725490000000     0.866760000000     0.479080000000    -0.447419   
O145     O      0.851750000000     0.645490000000     0.773860000000    -0.452689   
O146     O      0.821470000000     0.644090000000     0.865060000000    -0.45058    
O147     O      0.774410000000     0.615750000000     0.807730000000    -0.453599   
O148     O      0.900650000000     0.674860000000     0.831000000000    -0.445637   
O149     O      0.905190000000     0.742410000000     0.825160000000    -0.388389   
O150     O      0.779370000000     0.683510000000     0.801820000000    -0.402867   
O151     O      0.827900000000     0.712580000000     0.859170000000    -0.395424   
O152     O      0.858390000000     0.714150000000     0.767990000000    -0.40975    
O153     O      0.168040000000     0.804500000000     0.944850000000    -0.44758    
O154     O      0.193800000000     0.832980000000     0.852760000000    -0.447895   
O155     O      0.243610000000     0.853700000000     0.908890000000    -0.453443   
O156     O      0.116500000000     0.782920000000     0.888880000000    -0.437562   
O157     O      0.110580000000     0.845120000000     0.895440000000    -0.428603   
O158     O      0.237540000000     0.915780000000     0.915120000000    -0.401001   
O159     O      0.185830000000     0.894000000000     0.859150000000    -0.398177   
O160     O      0.160330000000     0.865730000000     0.951280000000    -0.407253   
O161     O      0.520560000000     0.979600000000     0.947410000000    -0.45097    
O162     O      0.493210000000     0.981050000000     0.539250000000    -0.449449   
O163     O      0.444350000000     0.952960000000     0.982560000000    -0.449136   
O164     O      0.570710000000     0.008090000000     0.503930000000    -0.448049   
O165     O      0.577980000000     0.076820000000     0.497920000000    -0.387749   
O166     O      0.451630000000     0.021780000000     0.976470000000    -0.438386   
O167     O      0.502280000000     0.050590000000     0.533050000000    -0.398202   
O168     O      0.529610000000     0.049210000000     0.941410000000    -0.409252   
O169     O      0.176010000000     0.312280000000     0.667080000000    -0.443652   
O170     O      0.196560000000     0.315180000000     0.573710000000    -0.445839   
O171     O      0.251320000000     0.344120000000     0.628290000000    -0.450121   
O172     O      0.123230000000     0.283840000000     0.612690000000    -0.446178   
O173     O      0.126270000000     0.351080000000     0.609390000000    -0.439751   
O174     O      0.254560000000     0.411360000000     0.625380000000    -0.402813   
O175     O      0.201700000000     0.383470000000     0.570850000000    -0.441779   
O176     O      0.180630000000     0.380280000000     0.663590000000    -0.442791   
O177     O      0.857260000000     0.155240000000     0.541300000000    -0.442041   
O178     O      0.822210000000     0.120370000000     0.631360000000    -0.395144   
O179     O      0.776400000000     0.104330000000     0.573020000000    -0.438789   
O180     O      0.901370000000     0.170750000000     0.599550000000    -0.396155   
O181     O      0.896360000000     0.233310000000     0.606670000000    -0.44967    
O182     O      0.771660000000     0.167060000000     0.580560000000    -0.445058   
O183     O      0.815710000000     0.182120000000     0.638800000000    -0.446516   
O184     O      0.850360000000     0.216860000000     0.548430000000    -0.441487   
O185     O      0.537930000000     0.497810000000     0.664180000000    -0.448109   
O186     O      0.505190000000     0.465200000000     0.754840000000    -0.444033   
O187     O      0.458020000000     0.446160000000     0.696600000000    -0.434736   
O188     O      0.583320000000     0.516190000000     0.722370000000    -0.445146   
O189     O      0.576200000000     0.577770000000     0.728490000000    -0.435627   
O190     O      0.451270000000     0.507850000000     0.703430000000    -0.430728   
O191     O      0.496760000000     0.525990000000     0.761400000000    -0.410839   
O192     O      0.528970000000     0.558260000000     0.670460000000    -0.397722   
O193     O      0.224080000000     0.384820000000     0.905050000000    -0.403758   
O194     O      0.180580000000     0.380570000000     0.817280000000    -0.414141   
O195     O      0.167190000000     0.408180000000     0.876330000000    -0.439466   
O196     O      0.238430000000     0.356670000000     0.846060000000    -0.403729   
O197     O      0.180100000000     0.287050000000     0.855240000000    -0.459313   
O198     O      0.108710000000     0.338570000000     0.885140000000    -0.403373   
O199     O      0.123390000000     0.310020000000     0.826210000000    -0.446115   
O200     O      0.166690000000     0.314540000000     0.914230000000    -0.450624   
O201     O      0.388060000000     0.192710000000     0.871460000000    -0.441105   
O202     O      0.384920000000     0.238260000000     0.785440000000    -0.401234   
O203     O      0.358230000000     0.248340000000     0.846400000000    -0.4445     
O204     O      0.413680000000     0.183480000000     0.810050000000    -0.398631   
O205     O      0.345720000000     0.122630000000     0.801650000000    -0.447246   
O206     O      0.290290000000     0.187090000000     0.838170000000    -0.453179   
O207     O      0.316190000000     0.178400000000     0.776940000000    -0.449332   
O208     O      0.319170000000     0.132730000000     0.863290000000    -0.437251   
O209     O      0.037640000000     0.510210000000     0.521030000000    -0.412673   
O210     O      0.040270000000     0.555500000000     0.933880000000    -0.410605   
O211     O      0.009800000000     0.566310000000     0.493120000000    -0.450261   
O212     O      0.067010000000     0.500610000000     0.961650000000    -0.431914   
O213     O      0.999350000000     0.439640000000     0.952080000000    -0.440198   
O214     O      0.942300000000     0.505530000000     0.483190000000    -0.410116   
O215     O      0.971970000000     0.495620000000     0.923960000000    -0.449355   
O216     O      0.969060000000     0.450570000000     0.511340000000    -0.4442     
O217     O      0.724440000000     0.895140000000     0.642980000000    -0.405502   
O218     O      0.726450000000     0.852760000000     0.730040000000    -0.443994   
O219     O      0.751590000000     0.839920000000     0.669780000000    -0.442309   
O220     O      0.698250000000     0.908560000000     0.703180000000    -0.438141   
O221     O      0.629640000000     0.848130000000     0.695390000000    -0.453679   
O222     O      0.682880000000     0.779620000000     0.662640000000    -0.401502   
O223     O      0.656750000000     0.793630000000     0.722860000000    -0.437685   
O224     O      0.655250000000     0.835720000000     0.635110000000    -0.447977   
O225     O      0.893150000000     0.710840000000     0.606260000000    -0.442561   
O226     O      0.849980000000     0.711840000000     0.519110000000    -0.442811   
O227     O      0.840440000000     0.740420000000     0.578970000000    -0.446043   
O228     O      0.903790000000     0.681080000000     0.546620000000    -0.441015   
O229     O      0.842270000000     0.613460000000     0.555580000000    -0.449963   
O230     O      0.779050000000     0.672610000000     0.587670000000    -0.446995   
O231     O      0.789710000000     0.643050000000     0.527760000000    -0.446848   
O232     O      0.832700000000     0.642250000000     0.615130000000    -0.447047   
O233     O      0.572540000000     0.048450000000     0.781600000000    -0.439231   
O234     O      0.528770000000     0.054240000000     0.695330000000    -0.439209   
O235     O      0.518470000000     0.077730000000     0.757270000000    -0.44826    
O236     O      0.584400000000     0.024510000000     0.719820000000    -0.407219   
O237     O      0.524350000000     0.955350000000     0.726800000000    -0.456766   
O238     O      0.458110000000     0.008650000000     0.764270000000    -0.446169   
O239     O      0.469660000000     0.984300000000     0.702340000000    -0.448657   
O240     O      0.513270000000     0.978530000000     0.788460000000    -0.447522   
O241     O      0.318960000000     0.171660000000     0.525240000000    -0.447156   
O242     O      0.318430000000     0.199210000000     0.617210000000    -0.445148   
O243     O      0.349380000000     0.250340000000     0.560880000000    -0.450048   
O244     O      0.288900000000     0.122650000000     0.581730000000    -0.445721   
O245     O      0.355520000000     0.126340000000     0.588570000000    -0.439516   
O246     O      0.415920000000     0.253760000000     0.566700000000    -0.397876   
O247     O      0.386340000000     0.205380000000     0.623210000000    -0.439971   
O248     O      0.386120000000     0.176460000000     0.531720000000    -0.397219   
O249     O      0.509480000000     0.538490000000     0.508990000000    -0.441397   
O250     O      0.464490000000     0.488610000000     0.923070000000    -0.432071   
O251     O      0.452900000000     0.452670000000     0.485010000000    -0.441505   
O252     O      0.520130000000     0.572420000000     0.947160000000    -0.407992   
O253     O      0.579760000000     0.562980000000     0.940290000000    -0.450458   
O254     O      0.512300000000     0.442960000000     0.477470000000    -0.445728   
O255     O      0.523170000000     0.477600000000     0.915650000000    -0.441243   
O256     O      0.567690000000     0.526610000000     0.502020000000    -0.444918   
O257     O      0.167870000000     0.877940000000     0.696880000000    -0.4358     
O258     O      0.122400000000     0.824530000000     0.611780000000    -0.430671   
O259     O      0.110660000000     0.791500000000     0.674810000000    -0.402697   
O260     O      0.178530000000     0.909040000000     0.633710000000    -0.406075   
O261     O      0.237570000000     0.898450000000     0.627720000000    -0.45147    
O262     O      0.169620000000     0.780850000000     0.668470000000    -0.455949   
O263     O      0.180540000000     0.812400000000     0.605520000000    -0.443434   
O264     O      0.225730000000     0.865320000000     0.690850000000    -0.446718   
O265     O      0.969110000000     0.480910000000     0.674840000000    -0.446188   
O266     O      0.973120000000     0.510720000000     0.766380000000    -0.449035   
O267     O      0.998240000000     0.560040000000     0.709030000000    -0.443203   
O268     O      0.945070000000     0.433350000000     0.732270000000    -0.453792   
O269     O      0.013720000000     0.441130000000     0.736180000000    -0.403146   
O270     O      0.066780000000     0.567440000000     0.713200000000    -0.450937   
O271     O      0.042480000000     0.519960000000     0.770440000000    -0.439976   
O272     O      0.038490000000     0.490190000000     0.678740000000    -0.441203   
O273     O      0.811850000000     0.175340000000     0.800300000000    -0.443803   
O274     O      0.849480000000     0.216610000000     0.889100000000    -0.407209   
O275     O      0.863020000000     0.256580000000     0.829060000000    -0.439056   
O276     O      0.797170000000     0.133050000000     0.860500000000    -0.445311   
O277     O      0.858570000000     0.126750000000     0.853580000000    -0.404512   
O278     O      0.924370000000     0.250070000000     0.821960000000    -0.434415   
O279     O      0.909950000000     0.208450000000     0.882220000000    -0.432183   
O280     O      0.872200000000     0.166910000000     0.793460000000    -0.438156   
O281     O      0.657590000000     0.861160000000     0.975150000000    -0.447294   
O282     O      0.659620000000     0.846560000000     0.881400000000    -0.45124    
O283     O      0.629050000000     0.789990000000     0.933650000000    -0.448051   
O284     O      0.688990000000     0.919890000000     0.922660000000    -0.445078   
O285     O      0.755810000000     0.923260000000     0.926560000000    -0.436567   
O286     O      0.695730000000     0.793190000000     0.938130000000    -0.438918   
O287     O      0.726960000000     0.851160000000     0.885750000000    -0.402761   
O288     O      0.725490000000     0.866760000000     0.979080000000    -0.447382   


