data_structure

_audit_creation_method RASPA-1.0
_audit_creation_date 2023-5-22
_audit_author_name 'Poobodin Mano'

_cell_length_a    31.1602
_cell_length_b    31.3493
_cell_length_c    31.365
_cell_angle_alpha 89.9992
_cell_angle_beta  89.9995
_cell_angle_gamma 89.9995
_cell_volume      30638.9

_symmetry_cell_setting          triclinic
_symmetry_space_group_name_Hall 'P 1'
_symmetry_space_group_name_H-M  'P 1'
_symmetry_Int_Tables_number     1

_symmetry_equiv_pos_as_xyz 'x,y,z'

loop_
_atom_site_label
_atom_site_type_symbol
_atom_site_fract_x
_atom_site_fract_y
_atom_site_fract_z
_atom_site_charge
C1       C      0.597300000000     0.327470000000     0.998720000000     0.432603   
C2       C      0.760530000000     0.328990000000     0.005930000000     0.430244   
C3       C      0.680410000000     0.246940000000     0.002060000000     0.426994   
C4       C      0.677580000000     0.410000000000     0.001340000000     0.425221   
C5       C      0.427520000000     0.306370000000     0.002820000000     0.430147   
C6       C      0.269000000000     0.343910000000     0.012990000000     0.429844   
C7       C      0.329860000000     0.247070000000     0.014770000000     0.429012   
C8       C      0.368270000000     0.404660000000     0.002340000000     0.427131   
C9       C      0.609670000000     0.662650000000     0.005210000000     0.423576   
C10      C      0.773470000000     0.667630000000     0.998740000000     0.428417   
C11      C      0.688800000000     0.747360000000     0.001750000000     0.425276   
C12      C      0.694940000000     0.584430000000     0.001770000000     0.424164   
C13      C      0.433170000000     0.668940000000     0.006060000000     0.424525   
C14      C      0.270510000000     0.648110000000     0.000550000000     0.42468    
C15      C      0.341430000000     0.739170000000     0.005760000000     0.427172   
C16      C      0.360800000000     0.577680000000     0.001470000000     0.426352   
C17      C      0.658630000000     0.010030000000     0.562320000000     0.427428   
C18      C      0.664060000000     0.011680000000     0.724800000000     0.427068   
C19      C      0.743790000000     0.006980000000     0.641340000000     0.427087   
C20      C      0.580210000000     0.013900000000     0.645130000000     0.426778   
C21      C      0.316850000000     0.019920000000     0.606810000000     0.429506   
C22      C      0.336690000000     0.998270000000     0.766470000000     0.431901   
C23      C      0.245220000000     0.008210000000     0.695000000000     0.428194   
C24      C      0.408120000000     0.011360000000     0.678580000000     0.427156   
C25      C      0.336040000000     0.022820000000     0.436190000000     0.429772   
C26      C      0.326070000000     0.005450000000     0.274870000000     0.429545   
C27      C      0.249110000000     0.012650000000     0.360380000000     0.428554   
C28      C      0.412520000000     0.017170000000     0.350630000000     0.428767   
C29      C      0.669200000000     0.016340000000     0.388450000000     0.427705   
C30      C      0.659550000000     0.024580000000     0.226460000000     0.429289   
C31      C      0.745620000000     0.022050000000     0.304380000000     0.429709   
C32      C      0.582280000000     0.019230000000     0.311090000000     0.428051   
C33      C      0.994810000000     0.690320000000     0.582760000000     0.428235   
C34      C      0.001290000000     0.661360000000     0.742770000000     0.427943   
C35      C      0.996920000000     0.754990000000     0.677250000000     0.429049   
C36      C      0.998600000000     0.595090000000     0.647400000000     0.428917   
C37      C      0.998170000000     0.331390000000     0.590030000000     0.426817   
C38      C      0.005960000000     0.350480000000     0.751600000000     0.428714   
C39      C      0.003300000000     0.260210000000     0.680070000000     0.428081   
C40      C      0.000690000000     0.422150000000     0.662750000000     0.427824   
C41      C      0.005550000000     0.588060000000     0.336150000000     0.429638   
C42      C      0.011350000000     0.749800000000     0.323820000000     0.431454   
C43      C      0.015630000000     0.663840000000     0.248550000000     0.42744    
C44      C      0.001210000000     0.674410000000     0.410310000000     0.426865   
C45      C      0.990780000000     0.337810000000     0.415090000000     0.426982   
C46      C      0.980590000000     0.330630000000     0.252740000000     0.430158   
C47      C      0.978680000000     0.252990000000     0.336140000000     0.430925   
C48      C      0.993050000000     0.414710000000     0.328710000000     0.429983   
C49      C      0.006940000000     0.356870000000     0.087500000000     0.430241   
C50      C      0.021350000000     0.352340000000     0.925730000000     0.42858    
C51      C      0.094990000000     0.359810000000     0.015590000000     0.430652   
C52      C      0.932900000000     0.351070000000     0.998790000000     0.433923   
C53      C      0.032650000000     0.642950000000     0.075510000000     0.427264   
C54      C      0.020060000000     0.636720000000     0.913430000000     0.428459   
C55      C      0.104670000000     0.619490000000     0.987410000000     0.430536   
C56      C      0.947180000000     0.660970000000     0.001340000000     0.427898   
C57      C      0.992770000000     0.081220000000     0.346740000000     0.429676   
C58      C      0.991410000000     0.918940000000     0.342950000000     0.431775   
C59      C      0.074120000000     0.999050000000     0.347930000000     0.429708   
C60      C      0.910900000000     0.999480000000     0.340920000000     0.432375   
C61      C      0.914600000000     0.018090000000     0.676980000000     0.42679    
C62      C      0.073930000000     0.996690000000     0.706410000000     0.429638   
C63      C      0.984910000000     0.928180000000     0.682620000000     0.4281     
C64      C      0.005270000000     0.088410000000     0.700290000000     0.428711   
C65      C      0.669520000000     0.078350000000     0.977140000000     0.427783   
C66      C      0.695840000000     0.917830000000     0.979170000000     0.426894   
C67      C      0.682340000000     0.996620000000     0.897000000000     0.428109   
C68      C      0.683020000000     0.999700000000     0.059430000000     0.430166   
C69      C      0.335820000000     0.073570000000     0.016200000000     0.427825   
C70      C      0.344360000000     0.912060000000     0.024730000000     0.42661    
C71      C      0.339840000000     0.998300000000     0.101760000000     0.429302   
C72      C      0.339230000000     0.990380000000     0.940320000000     0.428393   
C73      C      0.946060000000     0.185800000000     0.361180000000    -0.0091376  
C74      C      0.998030000000     0.186630000000     0.299630000000    -0.00791771 
C75      C      0.971010000000     0.148610000000     0.381260000000    -0.00994136 
C76      C      0.021550000000     0.148330000000     0.318230000000    -0.00950263 
C77      C      0.034170000000     0.328360000000     0.155080000000    -0.00782936 
C78      C      0.976480000000     0.384880000000     0.154670000000    -0.0098229  
C79      C      0.007350000000     0.301260000000     0.185140000000    -0.00784298 
C80      C      0.949520000000     0.357350000000     0.185390000000    -0.0107394  
C81      C      0.038560000000     0.478710000000     0.317110000000    -0.0107018  
C82      C      0.958210000000     0.485040000000     0.320080000000    -0.00995937 
C83      C      0.042670000000     0.518510000000     0.345220000000    -0.0106573  
C84      C      0.962380000000     0.523270000000     0.349700000000    -0.0100865  
C85      C      0.041110000000     0.817400000000     0.350070000000    -0.00961272 
C86      C      0.987270000000     0.816610000000     0.290000000000    -0.00886357 
C87      C      0.014040000000     0.850540000000     0.373630000000    -0.00900085 
C88      C      0.962810000000     0.853100000000     0.311210000000    -0.00851365 
C89      C      0.986790000000     0.638930000000     0.180210000000    -0.00894041 
C90      C      0.048970000000     0.690540000000     0.182500000000    -0.0108402  
C91      C      0.009080000000     0.614430000000     0.144610000000    -0.00984427 
C92      C      0.066730000000     0.670650000000     0.141230000000    -0.0102052  
C93      C      0.035090000000     0.343810000000     0.480620000000    -0.0110156  
C94      C      0.954680000000     0.349400000000     0.484560000000    -0.0108298  
C95      C      0.034910000000     0.316660000000     0.521260000000    -0.0107896  
C96      C      0.954690000000     0.321410000000     0.524500000000    -0.0105596  
C97      C      0.051280000000     0.378550000000     0.857830000000    -0.0100757  
C98      C      0.002440000000     0.314250000000     0.860260000000    -0.00903918 
C99      C      0.032750000000     0.390090000000     0.813790000000    -0.0100742  
C100     C      0.977980000000     0.331250000000     0.821850000000    -0.0083428  
C101     C      0.968100000000     0.194700000000     0.705610000000    -0.00943575 
C102     C      0.035110000000     0.191410000000     0.659880000000    -0.0105359  
C103     C      0.985160000000     0.157450000000     0.732280000000    -0.00994616 
C104     C      0.049430000000     0.151810000000     0.684500000000    -0.00869149 
C105     C      0.954220000000     0.703440000000     0.515330000000    -0.0108376  
C106     C      0.034200000000     0.706130000000     0.516220000000    -0.00920722 
C107     C      0.955670000000     0.674590000000     0.475510000000    -0.0116854  
C108     C      0.036670000000     0.673490000000     0.480550000000    -0.0103202  
C109     C      0.959330000000     0.527680000000     0.632830000000    -0.0102531  
C110     C      0.039380000000     0.528640000000     0.632590000000    -0.0100658  
C111     C      0.959280000000     0.489540000000     0.663250000000    -0.0107883  
C112     C      0.040430000000     0.490460000000     0.662870000000    -0.0107926  
C113     C      0.950410000000     0.860110000000     0.702800000000    -0.00947938 
C114     C      0.004670000000     0.863490000000     0.643240000000    -0.00933799 
C115     C      0.969380000000     0.817180000000     0.717060000000    -0.0102216  
C116     C      0.028060000000     0.825210000000     0.662090000000    -0.00916638 
C117     C      0.054740000000     0.655700000000     0.845780000000    -0.00815717 
C118     C      0.990150000000     0.607780000000     0.846170000000    -0.00996986 
C119     C      0.035290000000     0.682220000000     0.810120000000    -0.0101913  
C120     C      0.969910000000     0.634520000000     0.810220000000    -0.0101727  
C121     C      0.814930000000     0.992470000000     0.280110000000    -0.00801222 
C122     C      0.812260000000     0.052310000000     0.333740000000    -0.0105162  
C123     C      0.846160000000     0.968280000000     0.308770000000    -0.00779875 
C124     C      0.840770000000     0.026510000000     0.364100000000    -0.00941616 
C125     C      0.655610000000     0.971540000000     0.127560000000    -0.00907784 
C126     C      0.710170000000     0.031010000000     0.126550000000    -0.0104793  
C127     C      0.628910000000     0.996390000000     0.159770000000    -0.00709527 
C128     C      0.682440000000     0.056420000000     0.158170000000    -0.0103567  
C129     C      0.479860000000     0.059320000000     0.346030000000    -0.010646   
C130     C      0.482460000000     0.979450000000     0.351470000000    -0.0100716  
C131     C      0.512670000000     0.057850000000     0.309730000000    -0.010661   
C132     C      0.514460000000     0.977980000000     0.314590000000    -0.00994276 
C133     C      0.183070000000     0.985310000000     0.393930000000    -0.0088042  
C134     C      0.180290000000     0.043440000000     0.338310000000    -0.00887307 
C135     C      0.140270000000     0.967690000000     0.377070000000    -0.0103277  
C136     C      0.142750000000     0.020990000000     0.316780000000    -0.00991624 
C137     C      0.345390000000     0.963980000000     0.211140000000    -0.00915745 
C138     C      0.295120000000     0.026910000000     0.205920000000    -0.00951333 
C139     C      0.369700000000     0.979900000000     0.171910000000    -0.00796243 
C140     C      0.316170000000     0.039750000000     0.163790000000    -0.00964067 
C141     C      0.307600000000     0.985560000000     0.536940000000    -0.00802939 
C142     C      0.308060000000     0.065310000000     0.541640000000    -0.0115062  
C143     C      0.344220000000     0.986880000000     0.505420000000    -0.00877179 
C144     C      0.338860000000     0.066820000000     0.502810000000    -0.0118081  
C145     C      0.326680000000     0.954190000000     0.830590000000    -0.00924168 
C146     C      0.375590000000     0.018020000000     0.831780000000    -0.010302   
C147     C      0.306610000000     0.968330000000     0.872670000000    -0.00905043 
C148     C      0.359160000000     0.029760000000     0.876100000000    -0.0104805  
C149     C      0.177320000000     0.037180000000     0.724090000000    -0.00969429 
C150     C      0.177370000000     0.981380000000     0.665800000000    -0.00882849 
C151     C      0.140180000000     0.013420000000     0.746150000000    -0.0116255  
C152     C      0.140260000000     0.958700000000     0.687680000000    -0.00746704 
C153     C      0.653710000000     0.970160000000     0.493990000000    -0.0104033  
C154     C      0.645800000000     0.049890000000     0.495500000000    -0.0103167  
C155     C      0.682110000000     0.973940000000     0.454190000000    -0.0104658  
C156     C      0.676010000000     0.053710000000     0.457560000000    -0.0100659  
C157     C      0.476580000000     0.051910000000     0.681150000000    -0.0110665  
C158     C      0.476750000000     0.972130000000     0.672240000000    -0.00994886 
C159     C      0.512330000000     0.055610000000     0.647710000000    -0.010823   
C160     C      0.510670000000     0.976380000000     0.637470000000    -0.0100219  
C161     C      0.841990000000     0.994550000000     0.695730000000    -0.00782743 
C162     C      0.853260000000     0.050500000000     0.638680000000    -0.0105715  
C163     C      0.809430000000     0.972220000000     0.667200000000    -0.0099148  
C164     C      0.814150000000     0.032540000000     0.614550000000    -0.0100756  
C165     C      0.691100000000     0.042430000000     0.792030000000    -0.00976945 
C166     C      0.632670000000     0.986760000000     0.792320000000    -0.00861587 
C167     C      0.713920000000     0.018760000000     0.828340000000    -0.0106431  
C168     C      0.653430000000     0.965420000000     0.830960000000    -0.00950786 
C169     C      0.379590000000     0.846520000000     0.999760000000    -0.0075915  
C170     C      0.321400000000     0.843270000000     0.055620000000    -0.0102398  
C171     C      0.358400000000     0.809670000000     0.975900000000    -0.00903487 
C172     C      0.304240000000     0.802210000000     0.035150000000    -0.010014   
C173     C      0.203260000000     0.621130000000     0.033310000000    -0.0115277  
C174     C      0.202080000000     0.660680000000     0.963050000000    -0.0110856  
C175     C      0.171220000000     0.588460000000     0.015020000000    -0.011079   
C176     C      0.170400000000     0.628000000000     0.945660000000    -0.00533311 
C177     C      0.540720000000     0.652270000000     0.967510000000    -0.0100585  
C178     C      0.542410000000     0.656420000000     0.047580000000    -0.0115191  
C179     C      0.501200000000     0.680900000000     0.967000000000    -0.00957117 
C180     C      0.500500000000     0.682450000000     0.046840000000    -0.0112906  
C181     C      0.655680000000     0.812220000000     0.972420000000    -0.00860481 
C182     C      0.710870000000     0.817550000000     0.031000000000    -0.0100485  
C183     C      0.678030000000     0.848000000000     0.948280000000    -0.00828322 
C184     C      0.733500000000     0.853740000000     0.006310000000    -0.0127104  
C185     C      0.880740000000     0.651610000000     0.042200000000    -0.00726642 
C186     C      0.883920000000     0.704620000000     0.982160000000    -0.00756782 
C187     C      0.839090000000     0.633410000000     0.024620000000    -0.0112206  
C188     C      0.842190000000     0.685940000000     0.963500000000    -0.0105352  
C189     C      0.362710000000     0.509890000000     0.041210000000    -0.0103622  
C190     C      0.356950000000     0.510220000000     0.960540000000    -0.0102229  
C191     C      0.391800000000     0.471010000000     0.038230000000    -0.0103398  
C192     C      0.384200000000     0.469440000000     0.959220000000    -0.010653   
C193     C      0.163840000000     0.395780000000     0.002490000000    -0.0115977  
C194     C      0.158220000000     0.336570000000     0.056140000000    -0.00842548 
C195     C      0.203570000000     0.374920000000     0.983090000000    -0.00645004 
C196     C      0.201030000000     0.318350000000     0.040920000000    -0.0106926  
C197     C      0.363300000000     0.142650000000     0.039320000000    -0.00860965 
C198     C      0.310850000000     0.137340000000     0.977830000000    -0.010291   
C199     C      0.338780000000     0.181050000000     0.055870000000    -0.00953314 
C200     C      0.292830000000     0.181430000000     0.989980000000    -0.00788987 
C201     C      0.673650000000     0.477850000000     0.960620000000    -0.0103382  
C202     C      0.669770000000     0.478250000000     0.040610000000    -0.0109505  
C203     C      0.703780000000     0.516470000000     0.961950000000    -0.01029    
C204     C      0.700370000000     0.516390000000     0.041860000000    -0.0108104  
C205     C      0.496510000000     0.293560000000     0.039200000000    -0.00855184 
C206     C      0.493130000000     0.292090000000     0.959760000000    -0.0097461  
C207     C      0.528640000000     0.329930000000     0.037830000000    -0.0106381  
C208     C      0.529030000000     0.325770000000     0.957450000000    -0.0113716  
C209     C      0.862210000000     0.379870000000     0.017490000000    -0.0110956  
C210     C      0.869490000000     0.319840000000     0.964200000000    -0.00933971 
C211     C      0.826180000000     0.355590000000     0.039840000000    -0.00825444 
C212     C      0.829440000000     0.298690000000     0.982890000000    -0.00678459 
C213     C      0.687440000000     0.148240000000     0.946490000000    -0.00822    
C214     C      0.633310000000     0.142460000000     0.005810000000    -0.0130929  
C215     C      0.711910000000     0.182000000000     0.971430000000    -0.00772131 
C216     C      0.657940000000     0.176880000000     0.031150000000    -0.00959501 
H1       H      0.974230000000     0.174620000000     0.276100000000     0.0393889  
H2       H      0.919230000000     0.172570000000     0.341910000000     0.0404804  
H3       H      0.948320000000     0.127990000000     0.399310000000     0.0392614  
H4       H      0.021110000000     0.207330000000     0.282140000000     0.0385162  
H5       H      0.033920000000     0.127980000000     0.291900000000     0.040485   
H6       H      0.049750000000     0.160340000000     0.336320000000     0.0400851  
H7       H      0.932410000000     0.206280000000     0.386800000000     0.0374099  
H8       H      0.994940000000     0.161820000000     0.404010000000     0.0418178  
H9       H      0.995350000000     0.408100000000     0.173830000000     0.040676   
H10      H      0.056650000000     0.347760000000     0.174640000000     0.0410642  
H11      H      0.028690000000     0.282000000000     0.206090000000     0.0388195  
H12      H      0.954780000000     0.402910000000     0.133010000000     0.037401   
H13      H      0.930580000000     0.378510000000     0.206770000000     0.0394249  
H14      H      0.926860000000     0.337810000000     0.166180000000     0.0403405  
H15      H      0.053780000000     0.307420000000     0.134080000000     0.0388544  
H16      H      0.988020000000     0.278770000000     0.165580000000     0.0409502  
H17      H      0.955650000000     0.496950000000     0.286770000000     0.0387772  
H18      H      0.040980000000     0.488820000000     0.283210000000     0.0391423  
H19      H      0.072120000000     0.536200000000     0.335890000000     0.0433092  
H20      H      0.927960000000     0.467910000000     0.327750000000     0.0433026  
H21      H      0.934160000000     0.544420000000     0.345040000000     0.0436131  
H22      H      0.961570000000     0.511550000000     0.383170000000     0.0396017  
H23      H      0.065980000000     0.457090000000     0.323890000000     0.0434132  
H24      H      0.046640000000     0.507970000000     0.378840000000     0.0392272  
H25      H      0.009420000000     0.830710000000     0.266050000000     0.0394201  
H26      H      0.065890000000     0.834230000000     0.330890000000     0.0409246  
H27      H      0.035420000000     0.870830000000     0.393570000000     0.0383201  
H28      H      0.964450000000     0.795580000000     0.272600000000     0.0404157  
H29      H      0.949680000000     0.874870000000     0.286400000000     0.0393707  
H30      H      0.935100000000     0.839140000000     0.328650000000     0.0392647  
H31      H      0.057530000000     0.796670000000     0.373820000000     0.039963   
H32      H      0.991020000000     0.833710000000     0.394880000000     0.0417208  
H33      H      0.031190000000     0.719990000000     0.173670000000     0.0380867  
H34      H      0.963930000000     0.662140000000     0.165920000000     0.0413338  
H35      H      0.984250000000     0.597720000000     0.125350000000     0.0409195  
H36      H      0.076140000000     0.700560000000     0.203200000000     0.0418866  
H37      H      0.079730000000     0.696240000000     0.120350000000     0.0413535  
H38      H      0.094140000000     0.649730000000     0.150070000000     0.0373539  
H39      H      0.968300000000     0.616040000000     0.200190000000     0.0396284  
H40      H      0.030650000000     0.590080000000     0.158970000000     0.0419238  
H41      H      0.954660000000     0.383380000000     0.494760000000     0.039811   
H42      H      0.041150000000     0.377530000000     0.489830000000     0.0396928  
H43      H      0.065020000000     0.322810000000     0.539220000000     0.0435035  
H44      H      0.924440000000     0.343510000000     0.466730000000     0.0435653  
H45      H      0.927030000000     0.330640000000     0.544870000000     0.0431808  
H46      H      0.949940000000     0.287700000000     0.514500000000     0.0391098  
H47      H      0.062140000000     0.333320000000     0.460050000000     0.043317   
H48      H      0.035010000000     0.282500000000     0.511700000000     0.0387512  
H49      H      0.027510000000     0.291570000000     0.849130000000     0.0429505  
H50      H      0.082220000000     0.361660000000     0.852660000000     0.038208   
H51      H      0.059110000000     0.400690000000     0.792340000000     0.0400565  
H52      H      0.979680000000     0.296740000000     0.881300000000     0.0390288  
H53      H      0.963060000000     0.304040000000     0.804490000000     0.0376278  
H54      H      0.952050000000     0.352930000000     0.833040000000     0.0423809  
H55      H      0.058760000000     0.408260000000     0.875770000000     0.0412102  
H56      H      0.010900000000     0.417810000000     0.818010000000     0.0384019  
H57      H      0.019480000000     0.180650000000     0.629890000000     0.0404481  
H58      H      0.945790000000     0.181980000000     0.681020000000     0.0418679  
H59      H      0.957630000000     0.139150000000     0.745570000000     0.0401482  
H60      H      0.063840000000     0.210340000000     0.650690000000     0.0422629  
H61      H      0.067080000000     0.129870000000     0.662820000000     0.0407261  
H62      H      0.072290000000     0.162270000000     0.709640000000     0.037874   
H63      H      0.949700000000     0.216580000000     0.726750000000     0.0395063  
H64      H      0.004380000000     0.170490000000     0.759160000000     0.0399362  
H65      H      0.033870000000     0.738530000000     0.501730000000     0.0375745  
H66      H      0.950910000000     0.737030000000     0.504440000000     0.0383133  
H67      H      0.928950000000     0.683680000000     0.453860000000     0.0433024  
H68      H      0.063500000000     0.703690000000     0.536260000000     0.0430174  
H69      H      0.066740000000     0.679170000000     0.462360000000     0.0434048  
H70      H      0.038620000000     0.641080000000     0.494860000000     0.04204    
H71      H      0.925350000000     0.695410000000     0.534530000000     0.0428054  
H72      H      0.949780000000     0.641200000000     0.485940000000     0.0392996  
H73      H      0.040840000000     0.516400000000     0.599340000000     0.038506   
H74      H      0.957980000000     0.515320000000     0.599610000000     0.0384974  
H75      H      0.931040000000     0.469200000000     0.655780000000     0.0431999  
H76      H      0.068350000000     0.548590000000     0.638020000000     0.0431161  
H77      H      0.069150000000     0.470870000000     0.655250000000     0.0436726  
H78      H      0.044350000000     0.502610000000     0.695960000000     0.0399487  
H79      H      0.929910000000     0.546930000000     0.638390000000     0.0433679  
H80      H      0.955350000000     0.501630000000     0.696350000000     0.0403709  
H81      H      0.981590000000     0.852110000000     0.618700000000     0.0420235  
H82      H      0.922030000000     0.853290000000     0.682440000000     0.0380213  
H83      H      0.943040000000     0.795410000000     0.727030000000     0.0412753  
H84      H      0.028560000000     0.884740000000     0.627560000000     0.0398961  
H85      H      0.045050000000     0.808030000000     0.636020000000     0.0399249  
H86      H      0.052280000000     0.836690000000     0.685480000000     0.0410996  
H87      H      0.938700000000     0.878020000000     0.731120000000     0.0406145  
H88      H      0.989590000000     0.823140000000     0.745660000000     0.038623   
H89      H      0.007540000000     0.580450000000     0.831610000000     0.0405016  
H90      H      0.075750000000     0.631080000000     0.831080000000     0.0381538  
H91      H      0.061470000000     0.694850000000     0.789590000000     0.04254    
H92      H      0.964360000000     0.595030000000     0.867140000000     0.0398933  
H93      H      0.950670000000     0.613250000000     0.789220000000     0.0403935  
H94      H      0.947870000000     0.658340000000     0.824740000000     0.0407977  
H95      H      0.075390000000     0.676260000000     0.866160000000     0.0397327  
H96      H      0.018820000000     0.710100000000     0.824730000000     0.040634   
H97      H      0.833070000000     0.073550000000     0.314260000000     0.0413143  
H98      H      0.834110000000     0.010840000000     0.256520000000     0.0401379  
H99      H      0.869600000000     0.950310000000     0.288890000000     0.0382178  
H100     H      0.790080000000     0.072500000000     0.352850000000     0.0413415  
H101     H      0.860470000000     0.048690000000     0.383740000000     0.0374169  
H102     H      0.819860000000     0.007490000000     0.385650000000     0.0410248  
H103     H      0.794630000000     0.969500000000     0.262110000000     0.0406623  
H104     H      0.827390000000     0.944620000000     0.327470000000     0.0397535  
H105     H      0.734660000000     0.012840000000     0.144860000000     0.0404353  
H106     H      0.676610000000     0.949170000000     0.145490000000     0.0406446  
H107     H      0.611790000000     0.973880000000     0.181280000000     0.0406806  
H108     H      0.727050000000     0.053660000000     0.104990000000     0.0409047  
H109     H      0.703570000000     0.076320000000     0.178710000000     0.0406634  
H110     H      0.660880000000     0.077860000000     0.139760000000     0.0394452  
H111     H      0.634130000000     0.952050000000     0.107000000000     0.0417017  
H112     H      0.604260000000     0.014780000000     0.141890000000     0.0390795  
H113     H      0.500830000000     0.979890000000     0.381870000000     0.0399033  
H114     H      0.497520000000     0.064400000000     0.376420000000     0.0393906  
H115     H      0.532600000000     0.087220000000     0.310830000000     0.0435585  
H116     H      0.462860000000     0.949840000000     0.350950000000     0.0433057  
H117     H      0.535600000000     0.949740000000     0.318700000000     0.0433636  
H118     H      0.496180000000     0.973670000000     0.284440000000     0.0387831  
H119     H      0.458340000000     0.087160000000     0.341170000000     0.043551   
H120     H      0.494870000000     0.057910000000     0.279000000000     0.0393162  
H121     H      0.167630000000     0.067940000000     0.360670000000     0.0419046  
H122     H      0.175970000000     0.005530000000     0.422190000000     0.0372238  
H123     H      0.119870000000     0.957530000000     0.404350000000     0.0400921  
H124     H      0.199860000000     0.059750000000     0.313490000000     0.0391885  
H125     H      0.122970000000     0.045100000000     0.299640000000     0.0386444  
H126     H      0.155390000000     0.997750000000     0.293100000000     0.0428221  
H127     H      0.203520000000     0.958490000000     0.405180000000     0.0401845  
H128     H      0.147370000000     0.938600000000     0.358060000000     0.0376549  
H129     H      0.265890000000     0.008030000000     0.198370000000     0.0385004  
H130     H      0.320880000000     0.940360000000     0.200800000000     0.0416231  
H131     H      0.383820000000     0.952180000000     0.154740000000     0.0386845  
H132     H      0.284490000000     0.056000000000     0.223280000000     0.0402167  
H133     H      0.291380000000     0.052670000000     0.141770000000     0.0405785  
H134     H      0.339180000000     0.066010000000     0.170510000000     0.0381515  
H135     H      0.368370000000     0.947780000000     0.232950000000     0.0400596  
H136     H      0.396210000000     0.001180000000     0.182470000000     0.040845   
H137     H      0.274780000000     0.069560000000     0.529610000000     0.038322   
H138     H      0.276780000000     0.986080000000     0.519020000000     0.0392438  
H139     H      0.344200000000     0.956860000000     0.486610000000     0.0440474  
H140     H      0.315280000000     0.092460000000     0.563280000000     0.0426228  
H141     H      0.329680000000     0.093870000000     0.481800000000     0.0428462  
H142     H      0.371740000000     0.073260000000     0.514960000000     0.0385323  
H143     H      0.308850000000     0.955070000000     0.554940000000     0.0431939  
H144     H      0.375030000000     0.988240000000     0.523320000000     0.0413736  
H145     H      0.405560000000     0.999170000000     0.835750000000     0.0388826  
H146     H      0.353100000000     0.931340000000     0.837450000000     0.0405688  
H147     H      0.295880000000     0.939650000000     0.890680000000     0.0395637  
H148     H      0.384140000000     0.047580000000     0.814080000000     0.0416598  
H149     H      0.386170000000     0.042620000000     0.895400000000     0.0420805  
H150     H      0.335280000000     0.055890000000     0.872520000000     0.0385429  
H151     H      0.301890000000     0.937610000000     0.811160000000     0.0409747  
H152     H      0.278020000000     0.988430000000     0.865790000000     0.0422946  
H153     H      0.163830000000     0.002690000000     0.640850000000     0.0412329  
H154     H      0.163630000000     0.063140000000     0.704120000000     0.0407935  
H155     H      0.119370000000     0.036790000000     0.763060000000     0.0393571  
H156     H      0.197900000000     0.957460000000     0.649390000000     0.0417643  
H157     H      0.119610000000     0.942830000000     0.663460000000     0.0383017  
H158     H      0.153870000000     0.933480000000     0.708620000000     0.0388513  
H159     H      0.198310000000     0.051890000000     0.748740000000     0.0397357  
H160     H      0.153970000000     0.991040000000     0.769990000000     0.0409381  
H161     H      0.612270000000     0.049050000000     0.483340000000     0.0397649  
H162     H      0.620200000000     0.964060000000     0.483420000000     0.0391862  
H163     H      0.676550000000     0.945660000000     0.433530000000     0.0433046  
H164     H      0.649190000000     0.078900000000     0.515570000000     0.0438271  
H165     H      0.667510000000     0.082870000000     0.439270000000     0.0433502  
H166     H      0.709250000000     0.057820000000     0.469800000000     0.0387617  
H167     H      0.664400000000     0.942150000000     0.512950000000     0.0432109  
H168     H      0.716230000000     0.973230000000     0.464560000000     0.0391929  
H169     H      0.493260000000     0.966020000000     0.703080000000     0.0396881  
H170     H      0.491750000000     0.051600000000     0.713230000000     0.0387308  
H171     H      0.533300000000     0.083070000000     0.655990000000     0.0429917  
H172     H      0.456320000000     0.944000000000     0.664960000000     0.0430385  
H173     H      0.530300000000     0.946810000000     0.636810000000     0.0437058  
H174     H      0.494000000000     0.979010000000     0.606220000000     0.0392414  
H175     H      0.455990000000     0.080790000000     0.679240000000     0.04352    
H176     H      0.497210000000     0.062480000000     0.616330000000     0.0389061  
H177     H      0.842400000000     0.078890000000     0.656970000000     0.03818    
H178     H      0.824690000000     0.016260000000     0.717910000000     0.0409158  
H179     H      0.786850000000     0.953710000000     0.687540000000     0.0412134  
H180     H      0.877670000000     0.061800000000     0.615400000000     0.0414471  
H181     H      0.795270000000     0.059230000000     0.600630000000     0.0412845  
H182     H      0.826430000000     0.013170000000     0.587480000000     0.0381574  
H183     H      0.859040000000     0.969990000000     0.714960000000     0.0406309  
H184     H      0.826660000000     0.949710000000     0.645800000000     0.0417046  
H185     H      0.607050000000     0.008430000000     0.804140000000     0.0389215  
H186     H      0.670530000000     0.067830000000     0.805990000000     0.041021   
H187     H      0.731850000000     0.042200000000     0.848150000000     0.0392797  
H188     H      0.616920000000     0.962130000000     0.772140000000     0.0409421  
H189     H      0.628030000000     0.952250000000     0.852130000000     0.0405453  
H190     H      0.672850000000     0.938050000000     0.819280000000     0.0385557  
H191     H      0.715530000000     0.057730000000     0.771140000000     0.0393161  
H192     H      0.737300000000     0.995930000000     0.814300000000     0.0413903  
H193     H      0.342500000000     0.833990000000     0.082660000000     0.0385492  
H194     H      0.404820000000     0.833470000000     0.021190000000     0.0405137  
H195     H      0.383410000000     0.791960000000     0.957780000000     0.0404194  
H196     H      0.294250000000     0.861870000000     0.069190000000     0.0418037  
H197     H      0.293180000000     0.779970000000     0.060500000000     0.0415473  
H198     H      0.275670000000     0.810800000000     0.015730000000     0.0382571  
H199     H      0.395140000000     0.868090000000     0.976190000000     0.0410501  
H200     H      0.334710000000     0.822860000000     0.952880000000     0.0412181  
H201     H      0.183520000000     0.688400000000     0.975280000000     0.045194   
H202     H      0.184960000000     0.645600000000     0.051420000000     0.0414676  
H203     H      0.150140000000     0.576330000000     0.040990000000     0.0366159  
H204     H      0.222620000000     0.672450000000     0.936570000000     0.0432971  
H205     H      0.148700000000     0.643430000000     0.922030000000     0.0344556  
H206     H      0.188930000000     0.602700000000     0.928960000000     0.0383829  
H207     H      0.225110000000     0.604550000000     0.055930000000     0.0419445  
H208     H      0.189690000000     0.561240000000     0.001600000000     0.0395578  
H209     H      0.533980000000     0.622420000000     0.053240000000     0.0390452  
H210     H      0.529920000000     0.618460000000     0.966730000000     0.0407581  
H211     H      0.482100000000     0.673580000000     0.937990000000     0.0434635  
H212     H      0.562230000000     0.667230000000     0.074990000000     0.0432461  
H213     H      0.481110000000     0.674150000000     0.075400000000     0.0429551  
H214     H      0.509010000000     0.716820000000     0.049190000000     0.0386249  
H215     H      0.559550000000     0.658360000000     0.938030000000     0.0433571  
H216     H      0.512070000000     0.714610000000     0.964540000000     0.0386868  
H217     H      0.688610000000     0.832120000000     0.054570000000     0.0403149  
H218     H      0.629500000000     0.826590000000     0.991770000000     0.0412362  
H219     H      0.654020000000     0.866540000000     0.929670000000     0.0395927  
H220     H      0.735250000000     0.798570000000     0.048650000000     0.0396362  
H221     H      0.748040000000     0.876580000000     0.029310000000     0.0393244  
H222     H      0.759600000000     0.839530000000     0.986750000000     0.0416918  
H223     H      0.640560000000     0.789840000000     0.949370000000     0.0413741  
H224     H      0.700690000000     0.833260000000     0.925180000000     0.0398593  
H225     H      0.875490000000     0.732180000000     0.002850000000     0.0391482  
H226     H      0.872430000000     0.676170000000     0.066410000000     0.0385339  
H227     H      0.818680000000     0.622360000000     0.051530000000     0.0420128  
H228     H      0.904800000000     0.716160000000     0.955790000000     0.0380845  
H229     H      0.823440000000     0.711880000000     0.948040000000     0.0395308  
H230     H      0.850750000000     0.662070000000     0.938690000000     0.0417964  
H231     H      0.899200000000     0.626030000000     0.058630000000     0.0384851  
H232     H      0.847100000000     0.604910000000     0.005060000000     0.0412867  
H233     H      0.322590000000     0.500970000000     0.957970000000     0.0398973  
H234     H      0.329410000000     0.498910000000     0.047730000000     0.041264   
H235     H      0.389170000000     0.452210000000     0.068150000000     0.0432274  
H236     H      0.364860000000     0.529910000000     0.932130000000     0.0430402  
H237     H      0.374130000000     0.449730000000     0.931520000000     0.0429608  
H238     H      0.418250000000     0.478830000000     0.954240000000     0.0382977  
H239     H      0.373330000000     0.529450000000     0.068830000000     0.0436461  
H240     H      0.425540000000     0.482300000000     0.035510000000     0.0380216  
H241     H      0.164700000000     0.357360000000     0.084140000000     0.0373993  
H242     H      0.174190000000     0.419390000000     0.026880000000     0.042092   
H243     H      0.225000000000     0.400100000000     0.969950000000     0.0374594  
H244     H      0.137060000000     0.310200000000     0.067170000000     0.0390626  
H245     H      0.219580000000     0.306750000000     0.068930000000     0.0410802  
H246     H      0.194220000000     0.290110000000     0.020550000000     0.0393897  
H247     H      0.145770000000     0.412790000000     0.977030000000     0.0415198  
H248     H      0.193490000000     0.353820000000     0.956400000000     0.0434048  
H249     H      0.333650000000     0.141850000000     0.950930000000     0.0377339  
H250     H      0.390720000000     0.153750000000     0.019490000000     0.0427151  
H251     H      0.360850000000     0.200500000000     0.075840000000     0.0425999  
H252     H      0.284400000000     0.116770000000     0.965810000000     0.0413714  
H253     H      0.285890000000     0.200010000000     0.960580000000     0.0417055  
H254     H      0.261730000000     0.176320000000     0.006590000000     0.0360324  
H255     H      0.376190000000     0.124350000000     0.066920000000     0.0392336  
H256     H      0.311840000000     0.169810000000     0.076260000000     0.0399431  
H257     H      0.636300000000     0.490530000000     0.041660000000     0.0395494  
H258     H      0.640320000000     0.489680000000     0.956060000000     0.039738   
H259     H      0.698220000000     0.536180000000     0.933020000000     0.0435     
H260     H      0.674980000000     0.458670000000     0.069690000000     0.0432954  
H261     H      0.692730000000     0.536050000000     0.070340000000     0.0431337  
H262     H      0.733620000000     0.504110000000     0.045720000000     0.0381516  
H263     H      0.682000000000     0.457990000000     0.932470000000     0.0435688  
H264     H      0.737390000000     0.504620000000     0.960680000000     0.0395127  
H265     H      0.508280000000     0.260020000000     0.958050000000     0.0384974  
H266     H      0.514500000000     0.262910000000     0.039420000000     0.0381207  
H267     H      0.548790000000     0.328570000000     0.067010000000     0.0443055  
H268     H      0.471660000000     0.295640000000     0.931690000000     0.0431133  
H269     H      0.549820000000     0.318820000000     0.929520000000     0.0432326  
H270     H      0.513860000000     0.357440000000     0.952150000000     0.0400661  
H271     H      0.477600000000     0.295290000000     0.069190000000     0.0427829  
H272     H      0.510720000000     0.360620000000     0.038460000000     0.0414647  
H273     H      0.859460000000     0.338600000000     0.935820000000     0.038838   
H274     H      0.847890000000     0.402420000000     0.994110000000     0.0434222  
H275     H      0.804030000000     0.378800000000     0.055280000000     0.0382022  
H276     H      0.892280000000     0.294920000000     0.952970000000     0.0392733  
H277     H      0.810210000000     0.284000000000     0.956850000000     0.0385871  
H278     H      0.840140000000     0.272450000000     0.004250000000     0.0376859  
H279     H      0.880570000000     0.398530000000     0.041570000000     0.0385079  
H280     H      0.840340000000     0.334850000000     0.064930000000     0.0415343  
H281     H      0.607310000000     0.158350000000     0.987450000000     0.0417584  
H282     H      0.664750000000     0.164830000000     0.924720000000     0.0405764  
H283     H      0.727590000000     0.204600000000     0.948940000000     0.039917   
H284     H      0.618480000000     0.119390000000     0.028390000000     0.0390784  
H285     H      0.634800000000     0.196220000000     0.050030000000     0.0385072  
H286     H      0.680210000000     0.160640000000     0.053600000000     0.0398652  
H287     H      0.710100000000     0.129460000000     0.926490000000     0.0393628  
H288     H      0.737740000000     0.165730000000     0.989710000000     0.0411741  
N1       N      0.993670000000     0.124610000000     0.347750000000    -0.170843   
N2       N      0.974960000000     0.209930000000     0.333230000000    -0.171351   
N3       N      0.978090000000     0.328760000000     0.209500000000    -0.17127    
N4       N      0.006200000000     0.357340000000     0.130820000000    -0.171406   
N5       N      0.003650000000     0.544890000000     0.342100000000    -0.170816   
N6       N      0.996620000000     0.457900000000     0.323710000000    -0.171057   
N7       N      0.990130000000     0.875700000000     0.342100000000    -0.171827   
N8       N      0.012950000000     0.793020000000     0.321480000000    -0.171649   
N9       N      0.034640000000     0.644330000000     0.118960000000    -0.170361   
N10      N      0.019080000000     0.662030000000     0.205250000000    -0.170316   
N11      N      0.996080000000     0.325010000000     0.546830000000    -0.169875   
N12      N      0.993350000000     0.341420000000     0.458590000000    -0.169808   
N13      N      0.007820000000     0.355040000000     0.794680000000    -0.170577   
N14      N      0.022940000000     0.350120000000     0.882410000000    -0.170322   
N15      N      0.012700000000     0.130920000000     0.705240000000    -0.17098    
N16      N      0.003840000000     0.216920000000     0.684260000000    -0.170376   
N17      N      0.997830000000     0.676180000000     0.453830000000    -0.169955   
N18      N      0.994150000000     0.699490000000     0.540080000000    -0.170542   
N19      N      0.000100000000     0.465770000000     0.660530000000    -0.170309   
N20      N      0.999100000000     0.552380000000     0.638330000000    -0.170509   
N21      N      0.996730000000     0.797890000000     0.683950000000    -0.170829   
N22      N      0.981160000000     0.885220000000     0.677490000000    -0.170635   
N23      N      0.003430000000     0.657240000000     0.786020000000    -0.170377   
N24      N      0.020760000000     0.634160000000     0.870100000000    -0.170983   
N25      N      0.867480000000     0.997560000000     0.338700000000    -0.171631   
N26      N      0.789270000000     0.022660000000     0.305370000000    -0.171321   
N27      N      0.656320000000     0.026510000000     0.183240000000    -0.171508   
N28      N      0.682920000000     0.000800000000     0.102850000000    -0.171698   
N29      N      0.538390000000     0.018470000000     0.312420000000    -0.170776   
N30      N      0.456370000000     0.018560000000     0.348680000000    -0.170891   
N31      N      0.117770000000     0.998220000000     0.349230000000    -0.170406   
N32      N      0.205450000000     0.011900000000     0.362240000000    -0.171012   
N33      N      0.340100000000     0.004030000000     0.144700000000    -0.171573   
N34      N      0.323870000000     0.000210000000     0.231850000000    -0.171151   
N35      N      0.339540000000     0.025790000000     0.479570000000    -0.171246   
N36      N      0.310610000000     0.023850000000     0.563830000000    -0.171506   
N37      N      0.337900000000     0.993420000000     0.897130000000    -0.170698   
N38      N      0.344230000000     0.991710000000     0.808660000000    -0.171291   
N39      N      0.116160000000     0.989010000000     0.714110000000    -0.170827   
N40      N      0.201510000000     0.007670000000     0.696510000000    -0.170845   
N41      N      0.674040000000     0.014520000000     0.431770000000    -0.170904   
N42      N      0.654540000000     0.010040000000     0.518880000000    -0.170573   
N43      N      0.536290000000     0.015260000000     0.644540000000    -0.170448   
N44      N      0.451970000000     0.012000000000     0.675690000000    -0.170597   
N45      N      0.787490000000     0.004650000000     0.641560000000    -0.170462   
N46      N      0.871570000000     0.019650000000     0.669120000000    -0.170511   
N47      N      0.682150000000     0.995040000000     0.853590000000    -0.170084   
N48      N      0.664010000000     0.012330000000     0.768230000000    -0.17078    
N49      N      0.336130000000     0.782290000000     0.006760000000    -0.170989   
N50      N      0.347030000000     0.868680000000     0.025420000000    -0.170846   
N51      N      0.146310000000     0.608640000000     0.980880000000    -0.17114    
N52      N      0.227070000000     0.642390000000     0.998540000000    -0.168447   
N53      N      0.476690000000     0.675560000000     0.006810000000    -0.17       
N54      N      0.565770000000     0.659440000000     0.006710000000    -0.169705   
N55      N      0.702570000000     0.874910000000     0.977920000000    -0.169673   
N56      N      0.685980000000     0.790780000000     0.001360000000    -0.170522   
N57      N      0.817100000000     0.664700000000     0.997190000000    -0.169474   
N58      N      0.905500000000     0.671980000000     0.007990000000    -0.171591   
N59      N      0.380630000000     0.446460000000     0.999920000000    -0.169546   
N60      N      0.363000000000     0.534060000000     0.000790000000    -0.170535   
N61      N      0.225840000000     0.349290000000     0.015530000000    -0.171497   
N62      N      0.137870000000     0.362570000000     0.022850000000    -0.171129   
N63      N      0.321560000000     0.204600000000     0.019150000000    -0.171651   
N64      N      0.334300000000     0.116770000000     0.013140000000    -0.171604   
N65      N      0.697860000000     0.540780000000     0.001760000000    -0.170088   
N66      N      0.675630000000     0.453700000000     0.000940000000    -0.170162   
N67      N      0.553450000000     0.327300000000     0.997820000000    -0.170836   
N68      N      0.470020000000     0.295960000000     0.000550000000    -0.172102   
N69      N      0.804010000000     0.328990000000     0.008290000000    -0.172087   
N70      N      0.889560000000     0.349160000000     0.994900000000    -0.171018   
N71      N      0.683080000000     0.203570000000     0.001690000000    -0.171175   
N72      N      0.662720000000     0.121220000000     0.975870000000    -0.169917   
Ni1      Ni     0.680930000000     0.327950000000     0.964010000000     0.996214   
Ni2      Ni     0.677120000000     0.328750000000     0.039880000000     1.00414    
Ni3      Ni     0.351450000000     0.327820000000     0.045730000000     1.02135    
Ni4      Ni     0.345230000000     0.323990000000     0.970220000000     0.98471    
Ni5      Ni     0.693300000000     0.665820000000     0.039740000000     0.98744    
Ni6      Ni     0.690090000000     0.666130000000     0.964080000000     0.994092   
Ni7      Ni     0.353130000000     0.659850000000     0.965750000000     1.00203    
Ni8      Ni     0.350320000000     0.657250000000     0.041390000000     0.986712   
Ni9      Ni     0.664010000000     0.048510000000     0.642960000000     0.98925    
Ni10     Ni     0.660120000000     0.972880000000     0.644180000000     1.00075    
Ni11     Ni     0.326530000000     0.972150000000     0.681750000000     1.02122    
Ni12     Ni     0.326660000000     0.047290000000     0.691990000000     0.979233   
Ni13     Ni     0.329210000000     0.052440000000     0.351390000000     0.988552   
Ni14     Ni     0.332280000000     0.976930000000     0.359450000000     1.01459    
Ni15     Ni     0.664360000000     0.982710000000     0.305270000000     0.997675   
Ni16     Ni     0.663760000000     0.058380000000     0.309490000000     1.0002     
Ni17     Ni     0.959600000000     0.674140000000     0.664390000000     0.980952   
Ni18     Ni     0.035790000000     0.676010000000     0.661010000000     1.0134     
Ni19     Ni     0.040220000000     0.341780000000     0.668850000000     0.994578   
Ni20     Ni     0.963900000000     0.340380000000     0.673080000000     1.00012    
Ni21     Ni     0.970490000000     0.669830000000     0.325860000000     0.99767    
Ni22     Ni     0.046410000000     0.668200000000     0.332880000000     1.00008    
Ni23     Ni     0.947780000000     0.337450000000     0.336170000000     0.997923   
Ni24     Ni     0.023760000000     0.330210000000     0.331300000000     1.0025     
Ni25     Ni     0.015920000000     0.317120000000     0.007870000000     1.01102    
Ni26     Ni     0.012110000000     0.393140000000     0.005430000000     0.992402   
Ni27     Ni     0.015980000000     0.603460000000     0.997070000000     1.00039    
Ni28     Ni     0.035940000000     0.676750000000     0.991780000000     0.997501   
Ni29     Ni     0.990790000000     0.999170000000     0.382740000000     0.999478   
Ni30     Ni     0.994010000000     0.000770000000     0.306710000000     1.00703    
Ni31     Ni     0.002240000000     0.011410000000     0.654610000000     0.996687   
Ni32     Ni     0.986730000000     0.005300000000     0.728610000000     0.994407   
Ni33     Ni     0.720310000000     0.004690000000     0.978010000000     0.991031   
Ni34     Ni     0.645140000000     0.991570000000     0.978540000000     0.999251   
Ni35     Ni     0.301920000000     0.990980000000     0.021080000000     0.986666   
Ni36     Ni     0.377610000000     0.994910000000     0.021020000000     1.00026    
O1       O      0.619080000000     0.327230000000     0.963950000000    -0.448091   
O2       O      0.742160000000     0.327680000000     0.969410000000    -0.4487     
O3       O      0.682440000000     0.267200000000     0.966700000000    -0.450992   
O4       O      0.679950000000     0.389230000000     0.966140000000    -0.447489   
O5       O      0.676340000000     0.389840000000     0.036910000000    -0.44919    
O6       O      0.677260000000     0.267160000000     0.037540000000    -0.445524   
O7       O      0.738460000000     0.330340000000     0.040340000000    -0.453171   
O8       O      0.616490000000     0.328010000000     0.034760000000    -0.459119   
O9       O      0.410920000000     0.315510000000     0.039060000000    -0.457232   
O10      O      0.290900000000     0.338510000000     0.047160000000    -0.452914   
O11      O      0.340260000000     0.268500000000     0.047840000000    -0.460113   
O12      O      0.363350000000     0.387200000000     0.038970000000    -0.4562     
O13      O      0.362240000000     0.382870000000     0.968220000000    -0.445205   
O14      O      0.328250000000     0.265120000000     0.977990000000    -0.442462   
O15      O      0.286780000000     0.341370000000     0.976300000000    -0.449423   
O16      O      0.404510000000     0.307330000000     0.968930000000    -0.447626   
O17      O      0.631480000000     0.666540000000     0.039730000000    -0.445148   
O18      O      0.754380000000     0.663850000000     0.034700000000    -0.45036    
O19      O      0.694950000000     0.727350000000     0.036950000000    -0.443522   
O20      O      0.692370000000     0.604710000000     0.037200000000    -0.447032   
O21      O      0.695450000000     0.605070000000     0.966420000000    -0.446446   
O22      O      0.684280000000     0.726760000000     0.966780000000    -0.448809   
O23      O      0.751740000000     0.671700000000     0.964220000000    -0.445235   
O24      O      0.629040000000     0.660930000000     0.969150000000    -0.447581   
O25      O      0.414050000000     0.664510000000     0.970180000000    -0.450862   
O26      O      0.291740000000     0.655480000000     0.966290000000    -0.449283   
O27      O      0.349040000000     0.720620000000     0.970150000000    -0.449775   
O28      O      0.357450000000     0.598720000000     0.966520000000    -0.448075   
O29      O      0.360600000000     0.597350000000     0.037300000000    -0.450377   
O30      O      0.339070000000     0.717520000000     0.040360000000    -0.446791   
O31      O      0.289870000000     0.646300000000     0.036580000000    -0.445558   
O32      O      0.411450000000     0.667780000000     0.040900000000    -0.443276   
O33      O      0.658330000000     0.045530000000     0.582530000000    -0.451698   
O34      O      0.669870000000     0.046380000000     0.703940000000    -0.447377   
O35      O      0.725160000000     0.043160000000     0.637020000000    -0.445548   
O36      O      0.602270000000     0.048440000000     0.648000000000    -0.444993   
O37      O      0.599260000000     0.977850000000     0.642150000000    -0.452865   
O38      O      0.721620000000     0.972920000000     0.646650000000    -0.449942   
O39      O      0.657600000000     0.976430000000     0.705140000000    -0.448443   
O40      O      0.661690000000     0.974710000000     0.582860000000    -0.447204   
O41      O      0.322350000000     0.982650000000     0.622470000000    -0.461019   
O42      O      0.330050000000     0.966170000000     0.742160000000    -0.45694    
O43      O      0.265400000000     0.974040000000     0.685120000000    -0.45392    
O44      O      0.387950000000     0.975640000000     0.678250000000    -0.451947   
O45      O      0.387320000000     0.046410000000     0.682450000000    -0.4478     
O46      O      0.265720000000     0.043080000000     0.701680000000    -0.44483    
O47      O      0.337360000000     0.036240000000     0.751230000000    -0.447321   
O48      O      0.316880000000     0.052780000000     0.631320000000    -0.442719   
O49      O      0.332970000000     0.056370000000     0.412840000000    -0.443936   
O50      O      0.325030000000     0.043060000000     0.290970000000    -0.4469     
O51      O      0.268250000000     0.048280000000     0.354500000000    -0.451919   
O52      O      0.390680000000     0.051760000000     0.348110000000    -0.449669   
O53      O      0.393380000000     0.981270000000     0.355270000000    -0.452292   
O54      O      0.270600000000     0.977890000000     0.363940000000    -0.448224   
O55      O      0.329300000000     0.972560000000     0.298830000000    -0.454894   
O56      O      0.336030000000     0.985820000000     0.419020000000    -0.460362   
O57      O      0.670970000000     0.982090000000     0.366130000000    -0.448989   
O58      O      0.657060000000     0.988330000000     0.245080000000    -0.451347   
O59      O      0.725620000000     0.986710000000     0.298690000000    -0.448098   
O60      O      0.603360000000     0.984120000000     0.311630000000    -0.450405   
O61      O      0.602250000000     0.054970000000     0.308990000000    -0.450147   
O62      O      0.724900000000     0.056710000000     0.310610000000    -0.452787   
O63      O      0.664690000000     0.058890000000     0.248150000000    -0.447841   
O64      O      0.663890000000     0.052530000000     0.370140000000    -0.451502   
O65      O      0.959770000000     0.688020000000     0.604300000000    -0.442907   
O66      O      0.964840000000     0.660030000000     0.723830000000    -0.44469    
O67      O      0.961730000000     0.733810000000     0.678810000000    -0.445474   
O68      O      0.962700000000     0.614800000000     0.650470000000    -0.448713   
O69      O      0.034000000000     0.615380000000     0.652510000000    -0.45157    
O70      O      0.032410000000     0.736300000000     0.668630000000    -0.454068   
O71      O      0.035710000000     0.668520000000     0.721570000000    -0.453568   
O72      O      0.030950000000     0.684430000000     0.601210000000    -0.4567     
O73      O      0.034780000000     0.334250000000     0.608460000000    -0.44904    
O74      O      0.040680000000     0.350030000000     0.729650000000    -0.446471   
O75      O      0.038630000000     0.280790000000     0.675510000000    -0.447634   
O76      O      0.036620000000     0.402270000000     0.662100000000    -0.450649   
O77      O      0.965440000000     0.401310000000     0.666670000000    -0.449893   
O78      O      0.967320000000     0.279940000000     0.680110000000    -0.451258   
O79      O      0.969380000000     0.346060000000     0.733520000000    -0.450872   
O80      O      0.963540000000     0.333870000000     0.612100000000    -0.448647   
O81      O      0.970690000000     0.609570000000     0.333800000000    -0.453397   
O82      O      0.975640000000     0.730340000000     0.317930000000    -0.450242   
O83      O      0.978450000000     0.661640000000     0.265890000000    -0.44978    
O84      O      0.967600000000     0.677020000000     0.386770000000    -0.446887   
O85      O      0.038240000000     0.669460000000     0.393180000000    -0.452026   
O86      O      0.049370000000     0.668070000000     0.271590000000    -0.447338   
O87      O      0.045590000000     0.729020000000     0.332470000000    -0.453039   
O88      O      0.041980000000     0.607060000000     0.333960000000    -0.449589   
O89      O      0.954090000000     0.339880000000     0.396750000000    -0.450976   
O90      O      0.946400000000     0.335600000000     0.274920000000    -0.448446   
O91      O      0.944920000000     0.276180000000     0.339390000000    -0.447589   
O92      O      0.955850000000     0.397750000000     0.332770000000    -0.452491   
O93      O      0.026740000000     0.391220000000     0.328270000000    -0.451822   
O94      O      0.015890000000     0.269940000000     0.333000000000    -0.4535     
O95      O      0.017290000000     0.327160000000     0.270820000000    -0.452201   
O96      O      0.024980000000     0.333210000000     0.392660000000    -0.448036   
O97      O      0.010730000000     0.321100000000     0.068230000000    -0.455823   
O98      O      0.020970000000     0.317690000000     0.947310000000    -0.454104   
O99      O      0.076720000000     0.323160000000     0.015050000000    -0.451351   
O100     O      0.954780000000     0.316500000000     0.000810000000    -0.452561   
O101     O      0.951280000000     0.387530000000     0.000750000000    -0.453873   
O102     O      0.073180000000     0.394050000000     0.010610000000    -0.451357   
O103     O      0.018730000000     0.388680000000     0.944440000000    -0.443574   
O104     O      0.005780000000     0.392020000000     0.066560000000    -0.445385   
O105     O      0.021580000000     0.608120000000     0.057300000000    -0.453681   
O106     O      0.010390000000     0.603790000000     0.935800000000    -0.446892   
O107     O      0.076290000000     0.590250000000     0.992450000000    -0.445612   
O108     O      0.957820000000     0.621570000000     0.002970000000    -0.451707   
O109     O      0.975600000000     0.690030000000     0.995540000000    -0.445311   
O110     O      0.094140000000     0.658910000000     0.986610000000    -0.452589   
O111     O      0.031340000000     0.671610000000     0.931410000000    -0.451615   
O112     O      0.040950000000     0.676370000000     0.053240000000    -0.446185   
O113     O      0.990510000000     0.060250000000     0.381720000000    -0.450941   
O114     O      0.991160000000     0.938310000000     0.378900000000    -0.452023   
O115     O      0.052470000000     0.997690000000     0.382690000000    -0.447699   
O116     O      0.929410000000     0.000410000000     0.377420000000    -0.449498   
O117     O      0.932770000000     0.999710000000     0.306400000000    -0.453538   
O118     O      0.055140000000     0.001230000000     0.311770000000    -0.453756   
O119     O      0.992700000000     0.939770000000     0.307840000000    -0.45198    
O120     O      0.994810000000     0.061770000000     0.310820000000    -0.451459   
O121     O      0.941780000000     0.023240000000     0.646570000000    -0.443743   
O122     O      0.060650000000     0.998530000000     0.667830000000    -0.450056   
O123     O      0.991990000000     0.951620000000     0.649910000000    -0.451475   
O124     O      0.013420000000     0.070640000000     0.664440000000    -0.450717   
O125     O      0.990880000000     0.066410000000     0.731670000000    -0.447087   
O126     O      0.982350000000     0.944700000000     0.719980000000    -0.445631   
O127     O      0.047740000000     0.001100000000     0.737650000000    -0.447361   
O128     O      0.927470000000     0.009490000000     0.714740000000    -0.452693   
O129     O      0.707760000000     0.064070000000     0.972890000000    -0.449412   
O130     O      0.727640000000     0.943610000000     0.983140000000    -0.442717   
O131     O      0.718010000000     0.000740000000     0.916990000000    -0.448023   
O132     O      0.717230000000     0.009400000000     0.038920000000    -0.44972    
O133     O      0.648800000000     0.989030000000     0.039440000000    -0.451543   
O134     O      0.646870000000     0.993470000000     0.917490000000    -0.448864   
O135     O      0.657570000000     0.932080000000     0.975110000000    -0.450444   
O136     O      0.637790000000     0.052660000000     0.981930000000    -0.445474   
O137     O      0.301680000000     0.051420000000     0.010710000000    -0.44581    
O138     O      0.308200000000     0.930640000000     0.031020000000    -0.44391    
O139     O      0.304490000000     0.001640000000     0.081180000000    -0.448641   
O140     O      0.304880000000     0.981470000000     0.960920000000    -0.447597   
O141     O      0.374100000000     0.999040000000     0.960200000000    -0.448796   
O142     O      0.375150000000     0.991150000000     0.082040000000    -0.448113   
O143     O      0.378120000000     0.934070000000     0.017020000000    -0.450988   
O144     O      0.371610000000     0.055390000000     0.024740000000    -0.452283   


