data_structure

_audit_creation_method RASPA-1.0
_audit_creation_date 2023-5-19
_audit_author_name 'Poobodin Mano'

_cell_length_a    41.3618
_cell_length_b    41.6755
_cell_length_c    42.0894
_cell_angle_alpha 90
_cell_angle_beta  90
_cell_angle_gamma 90
_cell_volume      72552.6

_symmetry_cell_setting          triclinic
_symmetry_space_group_name_Hall 'P 1'
_symmetry_space_group_name_H-M  'P 1'
_symmetry_Int_Tables_number     1

_symmetry_equiv_pos_as_xyz 'x,y,z'

loop_
_atom_site_label
_atom_site_type_symbol
_atom_site_fract_x
_atom_site_fract_y
_atom_site_fract_z
_atom_site_charge
C1       C      0.504040000000     0.441700000000     0.240980000000     0.434601   
C2       C      0.004020000000     0.061730000000     0.262930000000     0.432564   
C3       C      0.442330000000     0.501450000000     0.266480000000     0.430147   
C4       C      0.061570000000     0.501560000000     0.237890000000     0.435322   
C5       C      0.511700000000     0.248790000000     0.191620000000     0.433607   
C6       C      0.511340000000     0.253710000000     0.312670000000     0.428305   
C7       C      0.014320000000     0.190540000000     0.253320000000     0.426216   
C8       C      0.007770000000     0.312920000000     0.250540000000     0.426437   
C9       C      0.192270000000     0.496810000000     0.229170000000     0.427443   
C10      C      0.314310000000     0.499310000000     0.248110000000     0.430925   
C11      C      0.261620000000     0.998810000000     0.179390000000     0.43351    
C12      C      0.244060000000     0.997040000000     0.299320000000     0.430117   
C13      C      0.256280000000     0.006830000000     0.428330000000     0.431353   
C14      C      0.265080000000     0.498210000000     0.048530000000     0.425331   
C15      C      0.255180000000     0.063890000000     0.494090000000     0.432122   
C16      C      0.265710000000     0.442920000000     0.483080000000     0.426005   
C17      C      0.063870000000     0.250730000000     0.006290000000     0.432225   
C18      C      0.443810000000     0.276160000000     0.497830000000     0.430531   
C19      C      0.999780000000     0.260790000000     0.062950000000     0.427491   
C20      C      0.007300000000     0.266680000000     0.442210000000     0.43282    
C21      C      0.260350000000     0.193240000000     0.508470000000     0.428938   
C22      C      0.256090000000     0.314890000000     0.500780000000     0.435127   
C23      C      0.195540000000     0.252350000000     0.003720000000     0.422701   
C24      C      0.318700000000     0.256090000000     0.005660000000     0.42803    
C25      C      0.392560000000     0.299410000000     0.015990000000    -0.0160621  
C26      C      0.395030000000     0.265030000000     0.467090000000    -0.0375307  
C27      C      0.368660000000     0.275410000000     0.031140000000    -0.00990741 
C28      C      0.372570000000     0.240570000000     0.482560000000     0.0932582  
C29      C      0.144720000000     0.274450000000     0.024590000000    -0.0132662  
C30      C      0.144530000000     0.237440000000     0.477030000000    -0.0391037  
C31      C      0.113670000000     0.258770000000     0.036400000000    -0.00670744 
C32      C      0.113960000000     0.220880000000     0.489990000000     0.0914409  
C33      C      0.245480000000     0.391770000000     0.460990000000    -0.0117421  
C34      C      0.295200000000     0.393040000000     0.995020000000    -0.0311295  
C35      C      0.231870000000     0.364100000000     0.480610000000    -0.00774577 
C36      C      0.281010000000     0.366980000000     0.016670000000     0.0863662  
C37      C      0.286160000000     0.144270000000     0.988060000000    -0.00252337 
C38      C      0.249290000000     0.141510000000     0.035310000000    -0.0382635  
C39      C      0.268440000000     0.116480000000     0.472580000000    -0.00827643 
C40      C      0.231350000000     0.112780000000     0.520240000000     0.0918731  
C41      C      0.221630000000     0.021190000000     0.348510000000    -0.0128402  
C42      C      0.251360000000     0.468770000000     0.350180000000    -0.0395521  
C43      C      0.239100000000     0.032000000000     0.378860000000    -0.00874728 
C44      C      0.272320000000     0.480850000000     0.377640000000     0.0933009  
C45      C      0.249220000000     0.469600000000     0.097310000000    -0.0122412  
C46      C      0.294450000000     0.009680000000     0.098170000000    -0.0416268  
C47      C      0.237710000000     0.481600000000     0.129690000000    -0.00939589 
C48      C      0.281550000000     0.023910000000     0.129310000000     0.092652   
C49      C      0.986700000000     0.237720000000     0.363560000000    -0.0126985  
C50      C      0.040110000000     0.267030000000     0.362220000000    -0.0393751  
C51      C      0.477430000000     0.256500000000     0.393340000000    -0.00724728 
C52      C      0.529580000000     0.287410000000     0.390810000000     0.0921987  
C53      C      0.514400000000     0.284290000000     0.114740000000    -0.0127284  
C54      C      0.478280000000     0.235540000000     0.111820000000    -0.0406089  
C55      C      0.033700000000     0.268510000000     0.141450000000    -0.0074447  
C56      C      0.995940000000     0.221430000000     0.140770000000     0.0921679  
C57      C      0.142950000000     0.026010000000     0.212880000000    -0.0119046  
C58      C      0.142210000000     0.466260000000     0.216740000000    -0.0383986  
C59      C      0.112130000000     0.028400000000     0.232250000000    -0.00851423 
C60      C      0.108860000000     0.467130000000     0.233170000000     0.0934522  
C61      C      0.391170000000     0.480370000000     0.288130000000    -0.0122748  
C62      C      0.394090000000     0.035140000000     0.263990000000    -0.0361153  
C63      C      0.364140000000     0.471290000000     0.264490000000    -0.0102735  
C64      C      0.368270000000     0.026220000000     0.239650000000     0.091495   
C65      C      0.476110000000     0.362500000000     0.240740000000    -0.0137425  
C66      C      0.032540000000     0.365240000000     0.263750000000    -0.0425175  
C67      C      0.484240000000     0.391050000000     0.218940000000    -0.00803614 
C68      C      0.040190000000     0.393160000000     0.241490000000     0.0979718  
C69      C      0.490190000000     0.139920000000     0.234930000000    -0.0119183  
C70      C      0.042530000000     0.139370000000     0.265450000000    -0.0389789  
C71      C      0.477060000000     0.113260000000     0.255840000000    -0.00584036 
C72      C      0.029540000000     0.111420000000     0.286070000000     0.0907507  
C73      C      0.504040000000     0.441700000000     0.740980000000     0.434583   
C74      C      0.004020000000     0.061730000000     0.762930000000     0.43255    
C75      C      0.442330000000     0.501450000000     0.766480000000     0.430133   
C76      C      0.061570000000     0.501560000000     0.737890000000     0.4353     
C77      C      0.511700000000     0.248790000000     0.691620000000     0.433602   
C78      C      0.511340000000     0.253710000000     0.812670000000     0.42831    
C79      C      0.014320000000     0.190540000000     0.753320000000     0.426216   
C80      C      0.007770000000     0.312920000000     0.750540000000     0.426437   
C81      C      0.192270000000     0.496810000000     0.729170000000     0.427445   
C82      C      0.314310000000     0.499310000000     0.748110000000     0.430922   
C83      C      0.261620000000     0.998810000000     0.679390000000     0.433526   
C84      C      0.244060000000     0.997040000000     0.799320000000     0.430127   
C85      C      0.256280000000     0.006830000000     0.928330000000     0.431596   
C86      C      0.265080000000     0.498210000000     0.548530000000     0.424755   
C87      C      0.255180000000     0.063890000000     0.994090000000     0.432804   
C88      C      0.265710000000     0.442920000000     0.983080000000     0.427007   
C89      C      0.063870000000     0.250730000000     0.506290000000     0.432949   
C90      C      0.443810000000     0.276160000000     0.997830000000     0.434599   
C91      C      0.999780000000     0.260790000000     0.562950000000     0.427803   
C92      C      0.007300000000     0.266680000000     0.942210000000     0.432004   
C93      C      0.260350000000     0.193240000000     0.008470000000     0.424517   
C94      C      0.256090000000     0.314890000000     0.000780000000     0.427293   
C95      C      0.195540000000     0.252350000000     0.503720000000     0.427331   
C96      C      0.318700000000     0.256090000000     0.505660000000     0.432601   
C97      C      0.392560000000     0.299410000000     0.515990000000    -0.0133549  
C98      C      0.395030000000     0.265030000000     0.967090000000    -0.0377879  
C99      C      0.368660000000     0.275410000000     0.531140000000    -0.0100476  
C100     C      0.372570000000     0.240570000000     0.982560000000     0.0957005  
C101     C      0.144720000000     0.274450000000     0.524600000000    -0.0129713  
C102     C      0.144530000000     0.237440000000     0.977030000000    -0.0379585  
C103     C      0.113670000000     0.258770000000     0.536400000000    -0.00662908 
C104     C      0.113960000000     0.220880000000     0.989990000000     0.097734   
C105     C      0.245480000000     0.391770000000     0.960990000000    -0.0110488  
C106     C      0.295200000000     0.393040000000     0.495020000000    -0.0398452  
C107     C      0.231870000000     0.364100000000     0.980610000000    -0.00840893 
C108     C      0.281010000000     0.366980000000     0.516670000000     0.0933688  
C109     C      0.286160000000     0.144270000000     0.488060000000    -0.0100202  
C110     C      0.249290000000     0.141510000000     0.535310000000    -0.0386825  
C111     C      0.268440000000     0.116480000000     0.972580000000    -0.00998242 
C112     C      0.231350000000     0.112780000000     0.020240000000     0.0890896  
C113     C      0.221630000000     0.021190000000     0.848510000000    -0.0128587  
C114     C      0.251360000000     0.468770000000     0.850180000000    -0.0395756  
C115     C      0.239100000000     0.032000000000     0.878860000000    -0.00874095 
C116     C      0.272320000000     0.480850000000     0.877640000000     0.0933345  
C117     C      0.249220000000     0.469600000000     0.597310000000    -0.012293   
C118     C      0.294450000000     0.009680000000     0.598170000000    -0.0417363  
C119     C      0.237710000000     0.481600000000     0.629690000000    -0.00937712 
C120     C      0.281550000000     0.023910000000     0.629310000000     0.0926991  
C121     C      0.986700000000     0.237720000000     0.863560000000    -0.0127014  
C122     C      0.040110000000     0.267030000000     0.862220000000    -0.0394002  
C123     C      0.477430000000     0.256500000000     0.893340000000    -0.00728533 
C124     C      0.529580000000     0.287410000000     0.890810000000     0.0922525  
C125     C      0.514400000000     0.284290000000     0.614740000000    -0.0127318  
C126     C      0.478280000000     0.235540000000     0.611820000000    -0.0406092  
C127     C      0.033700000000     0.268510000000     0.641450000000    -0.00744987 
C128     C      0.995940000000     0.221430000000     0.640770000000     0.0921783  
C129     C      0.142950000000     0.026010000000     0.712880000000    -0.011931   
C130     C      0.142210000000     0.466260000000     0.716740000000    -0.0384204  
C131     C      0.112130000000     0.028400000000     0.732250000000    -0.00851699 
C132     C      0.108860000000     0.467130000000     0.733170000000     0.0934679  
C133     C      0.391170000000     0.480370000000     0.788130000000    -0.0122937  
C134     C      0.394090000000     0.035140000000     0.763990000000    -0.0361256  
C135     C      0.364140000000     0.471290000000     0.764490000000    -0.010274   
C136     C      0.368270000000     0.026220000000     0.739650000000     0.0914911  
C137     C      0.476110000000     0.362500000000     0.740740000000    -0.0137602  
C138     C      0.032540000000     0.365240000000     0.763750000000    -0.0425392  
C139     C      0.484240000000     0.391050000000     0.718940000000    -0.00800985 
C140     C      0.040190000000     0.393160000000     0.741490000000     0.0979811  
C141     C      0.490190000000     0.139920000000     0.734930000000    -0.0119321  
C142     C      0.042530000000     0.139370000000     0.765450000000    -0.0389875  
C143     C      0.477060000000     0.113260000000     0.755840000000    -0.00584331 
C144     C      0.029540000000     0.111420000000     0.786070000000     0.0907588  
C145     C      0.504040000000     0.941700000000     0.240980000000     0.434565   
C146     C      0.004020000000     0.561730000000     0.262930000000     0.432506   
C147     C      0.442330000000     0.001450000000     0.266480000000     0.428807   
C148     C      0.061570000000     0.001560000000     0.237890000000     0.433215   
C149     C      0.511700000000     0.748790000000     0.191620000000     0.433606   
C150     C      0.511340000000     0.753720000000     0.312670000000     0.428306   
C151     C      0.014320000000     0.690540000000     0.253320000000     0.426218   
C152     C      0.007770000000     0.812920000000     0.250540000000     0.426315   
C153     C      0.192270000000     0.996820000000     0.229170000000     0.428798   
C154     C      0.314310000000     0.999310000000     0.248110000000     0.433154   
C155     C      0.261620000000     0.498810000000     0.179390000000     0.432122   
C156     C      0.244060000000     0.497040000000     0.299320000000     0.428771   
C157     C      0.256280000000     0.506830000000     0.428330000000     0.431548   
C158     C      0.265080000000     0.998210000000     0.048530000000     0.426437   
C159     C      0.255180000000     0.563880000000     0.494090000000     0.43222    
C160     C      0.265710000000     0.942920000000     0.483080000000     0.425758   
C161     C      0.063870000000     0.750730000000     0.006290000000     0.432216   
C162     C      0.443810000000     0.776160000000     0.497830000000     0.430527   
C163     C      0.999780000000     0.760790000000     0.062950000000     0.427486   
C164     C      0.007300000000     0.766680000000     0.442210000000     0.432815   
C165     C      0.260350000000     0.693240000000     0.508470000000     0.428938   
C166     C      0.256090000000     0.814890000000     0.500780000000     0.435252   
C167     C      0.195540000000     0.752350000000     0.003720000000     0.422586   
C168     C      0.318700000000     0.756090000000     0.005660000000     0.42801    
C169     C      0.392560000000     0.799410000000     0.015990000000    -0.0160774  
C170     C      0.395030000000     0.765030000000     0.467090000000    -0.0375332  
C171     C      0.368660000000     0.775410000000     0.031140000000    -0.00990663 
C172     C      0.372570000000     0.740570000000     0.482560000000     0.0932573  
C173     C      0.144720000000     0.774440000000     0.024590000000    -0.0131739  
C174     C      0.144530000000     0.737440000000     0.477030000000    -0.0391099  
C175     C      0.113670000000     0.758770000000     0.036400000000    -0.00674789 
C176     C      0.113960000000     0.720880000000     0.489990000000     0.0914415  
C177     C      0.245480000000     0.891780000000     0.460990000000    -0.0117379  
C178     C      0.295200000000     0.893040000000     0.995020000000    -0.0311348  
C179     C      0.231870000000     0.864100000000     0.480610000000    -0.0077607  
C180     C      0.281010000000     0.866980000000     0.016670000000     0.0863562  
C181     C      0.286160000000     0.644270000000     0.988060000000    -0.00247783 
C182     C      0.249290000000     0.641510000000     0.035310000000    -0.0382603  
C183     C      0.268440000000     0.616480000000     0.472580000000    -0.00828702 
C184     C      0.231350000000     0.612770000000     0.520240000000     0.0919189  
C185     C      0.221630000000     0.521190000000     0.348510000000    -0.012068   
C186     C      0.251360000000     0.968770000000     0.350180000000    -0.0396252  
C187     C      0.239100000000     0.532000000000     0.378860000000    -0.00884033 
C188     C      0.272320000000     0.980850000000     0.377640000000     0.094093   
C189     C      0.249220000000     0.969600000000     0.097310000000    -0.0121881  
C190     C      0.294450000000     0.509690000000     0.098170000000    -0.0398271  
C191     C      0.237710000000     0.981600000000     0.129690000000    -0.00929025 
C192     C      0.281550000000     0.523910000000     0.129310000000     0.092975   
C193     C      0.986700000000     0.737720000000     0.363560000000    -0.0126566  
C194     C      0.040110000000     0.767030000000     0.362220000000    -0.0394085  
C195     C      0.477430000000     0.756500000000     0.393340000000    -0.00726743 
C196     C      0.529580000000     0.787410000000     0.390810000000     0.0922062  
C197     C      0.514400000000     0.784290000000     0.114740000000    -0.0127359  
C198     C      0.478280000000     0.735540000000     0.111820000000    -0.0406123  
C199     C      0.033700000000     0.768510000000     0.141450000000    -0.00744314 
C200     C      0.995940000000     0.721430000000     0.140770000000     0.0921687  
C201     C      0.142950000000     0.526010000000     0.212880000000    -0.0112879  
C202     C      0.142210000000     0.966260000000     0.216740000000    -0.0382635  
C203     C      0.112130000000     0.528410000000     0.232250000000    -0.00789656 
C204     C      0.108860000000     0.967130000000     0.233170000000     0.0934845  
C205     C      0.391170000000     0.980370000000     0.288130000000    -0.0116685  
C206     C      0.394090000000     0.535140000000     0.263990000000    -0.0359923  
C207     C      0.364140000000     0.971290000000     0.264490000000    -0.00952234 
C208     C      0.368270000000     0.526220000000     0.239650000000     0.0914849  
C209     C      0.476110000000     0.862500000000     0.240740000000    -0.0137416  
C210     C      0.032540000000     0.865240000000     0.263750000000    -0.0425276  
C211     C      0.484240000000     0.891050000000     0.218940000000    -0.00804839 
C212     C      0.040190000000     0.893160000000     0.241490000000     0.0979942  
C213     C      0.490190000000     0.639920000000     0.234930000000    -0.0119155  
C214     C      0.042530000000     0.639370000000     0.265450000000    -0.038982   
C215     C      0.477060000000     0.613260000000     0.255840000000    -0.00584871 
C216     C      0.029540000000     0.611420000000     0.286070000000     0.090757   
C217     C      0.504040000000     0.941700000000     0.740980000000     0.434547   
C218     C      0.004020000000     0.561730000000     0.762930000000     0.432491   
C219     C      0.442330000000     0.001450000000     0.766480000000     0.428777   
C220     C      0.061570000000     0.001560000000     0.737890000000     0.433166   
C221     C      0.511700000000     0.748790000000     0.691620000000     0.4336     
C222     C      0.511340000000     0.753720000000     0.812670000000     0.428311   
C223     C      0.014320000000     0.690540000000     0.753320000000     0.426218   
C224     C      0.007770000000     0.812920000000     0.750540000000     0.426315   
C225     C      0.192270000000     0.996820000000     0.729170000000     0.428814   
C226     C      0.314310000000     0.999310000000     0.748110000000     0.433175   
C227     C      0.261620000000     0.498810000000     0.679390000000     0.432121   
C228     C      0.244060000000     0.497040000000     0.799320000000     0.428768   
C229     C      0.256280000000     0.506830000000     0.928330000000     0.431794   
C230     C      0.265080000000     0.998210000000     0.548530000000     0.425889   
C231     C      0.255180000000     0.563880000000     0.994090000000     0.432906   
C232     C      0.265710000000     0.942920000000     0.983080000000     0.426758   
C233     C      0.063870000000     0.750730000000     0.506290000000     0.432942   
C234     C      0.443810000000     0.776160000000     0.997830000000     0.434606   
C235     C      0.999780000000     0.760790000000     0.562950000000     0.427799   
C236     C      0.007300000000     0.766680000000     0.942210000000     0.431996   
C237     C      0.260350000000     0.693240000000     0.008470000000     0.4245     
C238     C      0.256090000000     0.814890000000     0.000780000000     0.427392   
C239     C      0.195540000000     0.752350000000     0.503720000000     0.427231   
C240     C      0.318700000000     0.756090000000     0.505660000000     0.432597   
C241     C      0.392560000000     0.799410000000     0.515990000000    -0.0133618  
C242     C      0.395030000000     0.765030000000     0.967090000000    -0.0377914  
C243     C      0.368660000000     0.775410000000     0.531140000000    -0.0100472  
C244     C      0.372570000000     0.740570000000     0.982560000000     0.0957073  
C245     C      0.144720000000     0.774440000000     0.524600000000    -0.0128775  
C246     C      0.144530000000     0.737440000000     0.977030000000    -0.0379615  
C247     C      0.113670000000     0.758770000000     0.536400000000    -0.00666967 
C248     C      0.113960000000     0.720880000000     0.989990000000     0.0977573  
C249     C      0.245480000000     0.891780000000     0.960990000000    -0.0110434  
C250     C      0.295200000000     0.893040000000     0.495020000000    -0.0398694  
C251     C      0.231870000000     0.864100000000     0.980610000000    -0.00842485 
C252     C      0.281010000000     0.866980000000     0.516670000000     0.093375   
C253     C      0.286160000000     0.644270000000     0.488060000000    -0.0100072  
C254     C      0.249290000000     0.641510000000     0.535310000000    -0.0386812  
C255     C      0.268440000000     0.616480000000     0.972580000000    -0.0100005  
C256     C      0.231350000000     0.612770000000     0.020240000000     0.0891198  
C257     C      0.221630000000     0.521190000000     0.848510000000    -0.0120785  
C258     C      0.251360000000     0.968770000000     0.850180000000    -0.0396494  
C259     C      0.239100000000     0.532000000000     0.878860000000    -0.00883486 
C260     C      0.272320000000     0.980850000000     0.877640000000     0.0941339  
C261     C      0.249220000000     0.969600000000     0.597310000000    -0.0122389  
C262     C      0.294450000000     0.509690000000     0.598170000000    -0.0399053  
C263     C      0.237710000000     0.981600000000     0.629690000000    -0.00926998 
C264     C      0.281550000000     0.523910000000     0.629310000000     0.0930262  
C265     C      0.986700000000     0.737720000000     0.863560000000    -0.0126596  
C266     C      0.040110000000     0.767030000000     0.862220000000    -0.0394337  
C267     C      0.477430000000     0.756500000000     0.893340000000    -0.00730558 
C268     C      0.529580000000     0.787410000000     0.890810000000     0.0922601  
C269     C      0.514400000000     0.784290000000     0.614740000000    -0.0127394  
C270     C      0.478280000000     0.735540000000     0.611820000000    -0.0406127  
C271     C      0.033700000000     0.768510000000     0.641450000000    -0.00744835 
C272     C      0.995940000000     0.721430000000     0.640770000000     0.0921791  
C273     C      0.142950000000     0.526010000000     0.712880000000    -0.0113074  
C274     C      0.142210000000     0.966260000000     0.716740000000    -0.0382839  
C275     C      0.112130000000     0.528410000000     0.732250000000    -0.00789022 
C276     C      0.108860000000     0.967130000000     0.733170000000     0.0935005  
C277     C      0.391170000000     0.980370000000     0.788130000000    -0.0116813  
C278     C      0.394090000000     0.535140000000     0.763990000000    -0.0360011  
C279     C      0.364140000000     0.971290000000     0.764490000000    -0.00951422 
C280     C      0.368270000000     0.526220000000     0.739650000000     0.0914808  
C281     C      0.476110000000     0.862500000000     0.740740000000    -0.0137592  
C282     C      0.032540000000     0.865240000000     0.763750000000    -0.0425494  
C283     C      0.484240000000     0.891050000000     0.718940000000    -0.00802227 
C284     C      0.040190000000     0.893160000000     0.741490000000     0.0980036  
C285     C      0.490190000000     0.639920000000     0.734930000000    -0.0119295  
C286     C      0.042530000000     0.639370000000     0.765450000000    -0.0389907  
C287     C      0.477060000000     0.613260000000     0.755840000000    -0.00585159 
C288     C      0.029540000000     0.611420000000     0.786070000000     0.0907653  
C289     C      0.004040000000     0.441700000000     0.240980000000     0.434566   
C290     C      0.504020000000     0.061730000000     0.262930000000     0.432601   
C291     C      0.942320000000     0.501450000000     0.266480000000     0.430066   
C292     C      0.561570000000     0.501560000000     0.237890000000     0.43532    
C293     C      0.011700000000     0.248790000000     0.191620000000     0.433842   
C294     C      0.011340000000     0.253710000000     0.312670000000     0.428275   
C295     C      0.514320000000     0.190540000000     0.253320000000     0.426244   
C296     C      0.507770000000     0.312920000000     0.250540000000     0.426467   
C297     C      0.692270000000     0.496810000000     0.229170000000     0.427441   
C298     C      0.814310000000     0.499310000000     0.248110000000     0.430927   
C299     C      0.761610000000     0.998810000000     0.179390000000     0.433532   
C300     C      0.744060000000     0.997040000000     0.299320000000     0.430117   
C301     C      0.756280000000     0.006830000000     0.428330000000     0.431353   
C302     C      0.765080000000     0.498210000000     0.048530000000     0.425331   
C303     C      0.755180000000     0.063890000000     0.494090000000     0.432122   
C304     C      0.765710000000     0.442920000000     0.483080000000     0.426005   
C305     C      0.563870000000     0.250730000000     0.006290000000     0.432261   
C306     C      0.943810000000     0.276160000000     0.497830000000     0.430557   
C307     C      0.499780000000     0.260790000000     0.062950000000     0.42746    
C308     C      0.507300000000     0.266680000000     0.442210000000     0.432832   
C309     C      0.760350000000     0.193240000000     0.508470000000     0.428936   
C310     C      0.756090000000     0.314890000000     0.500780000000     0.435127   
C311     C      0.695540000000     0.252350000000     0.003720000000     0.422701   
C312     C      0.818700000000     0.256090000000     0.005660000000     0.42803    
C313     C      0.892560000000     0.299410000000     0.015990000000    -0.01606    
C314     C      0.895030000000     0.265030000000     0.467090000000    -0.0375267  
C315     C      0.868660000000     0.275410000000     0.031140000000    -0.00990787 
C316     C      0.872570000000     0.240570000000     0.482560000000     0.0932561  
C317     C      0.644720000000     0.274450000000     0.024590000000    -0.013267   
C318     C      0.644530000000     0.237440000000     0.477030000000    -0.0391039  
C319     C      0.613670000000     0.258770000000     0.036400000000    -0.00670392 
C320     C      0.613960000000     0.220880000000     0.489990000000     0.0914418  
C321     C      0.745480000000     0.391770000000     0.460990000000    -0.0117423  
C322     C      0.795200000000     0.393040000000     0.995020000000    -0.0311298  
C323     C      0.731870000000     0.364100000000     0.480610000000    -0.00774581 
C324     C      0.781010000000     0.366980000000     0.016670000000     0.0863663  
C325     C      0.786160000000     0.144270000000     0.988060000000    -0.00252449 
C326     C      0.749290000000     0.141510000000     0.035310000000    -0.0383004  
C327     C      0.768440000000     0.116480000000     0.472580000000    -0.00827539 
C328     C      0.731350000000     0.112780000000     0.520240000000     0.091885   
C329     C      0.721630000000     0.021190000000     0.348510000000    -0.0128404  
C330     C      0.751360000000     0.468770000000     0.350180000000    -0.0395522  
C331     C      0.739100000000     0.032000000000     0.378860000000    -0.00874736 
C332     C      0.772320000000     0.480850000000     0.377640000000     0.0933008  
C333     C      0.749210000000     0.469600000000     0.097310000000    -0.0122626  
C334     C      0.794450000000     0.009680000000     0.098170000000    -0.0416314  
C335     C      0.737710000000     0.481600000000     0.129690000000    -0.00939526 
C336     C      0.781550000000     0.023910000000     0.129310000000     0.092662   
C337     C      0.486700000000     0.237720000000     0.363560000000    -0.0127335  
C338     C      0.540110000000     0.267030000000     0.362220000000    -0.0393733  
C339     C      0.977430000000     0.256500000000     0.393340000000    -0.00728818 
C340     C      0.029580000000     0.287410000000     0.390810000000     0.092196   
C341     C      0.014400000000     0.284290000000     0.114740000000    -0.0127922  
C342     C      0.978280000000     0.235540000000     0.111820000000    -0.0405975  
C343     C      0.533700000000     0.268510000000     0.141450000000    -0.00748551 
C344     C      0.495940000000     0.221430000000     0.140770000000     0.0921148  
C345     C      0.642950000000     0.026010000000     0.212880000000    -0.0119098  
C346     C      0.642210000000     0.466260000000     0.216740000000    -0.0383865  
C347     C      0.612130000000     0.028400000000     0.232250000000    -0.00851293 
C348     C      0.608850000000     0.467130000000     0.233170000000     0.0934878  
C349     C      0.891170000000     0.480370000000     0.288130000000    -0.0122637  
C350     C      0.894090000000     0.035140000000     0.263990000000    -0.036104   
C351     C      0.864140000000     0.471290000000     0.264490000000    -0.0102761  
C352     C      0.868270000000     0.026220000000     0.239650000000     0.0914931  
C353     C      0.976110000000     0.362500000000     0.240740000000    -0.0137249  
C354     C      0.532540000000     0.365240000000     0.263750000000    -0.0425157  
C355     C      0.984240000000     0.391050000000     0.218940000000    -0.00801977 
C356     C      0.540190000000     0.393160000000     0.241490000000     0.0979745  
C357     C      0.990190000000     0.139920000000     0.234930000000    -0.0118889  
C358     C      0.542530000000     0.139370000000     0.265450000000    -0.0389922  
C359     C      0.977060000000     0.113260000000     0.255840000000    -0.0057748  
C360     C      0.529540000000     0.111420000000     0.286070000000     0.0908071  
C361     C      0.004040000000     0.441700000000     0.740980000000     0.434549   
C362     C      0.504020000000     0.061730000000     0.762930000000     0.432587   
C363     C      0.942320000000     0.501450000000     0.766480000000     0.430052   
C364     C      0.561570000000     0.501560000000     0.737890000000     0.435298   
C365     C      0.011700000000     0.248790000000     0.691620000000     0.433836   
C366     C      0.011340000000     0.253710000000     0.812670000000     0.42828    
C367     C      0.514320000000     0.190540000000     0.753320000000     0.426244   
C368     C      0.507770000000     0.312920000000     0.750540000000     0.426466   
C369     C      0.692270000000     0.496810000000     0.729170000000     0.427443   
C370     C      0.814310000000     0.499310000000     0.748110000000     0.430924   
C371     C      0.761610000000     0.998810000000     0.679390000000     0.433547   
C372     C      0.744060000000     0.997040000000     0.799320000000     0.430127   
C373     C      0.756280000000     0.006830000000     0.928330000000     0.431595   
C374     C      0.765080000000     0.498210000000     0.548530000000     0.424755   
C375     C      0.755180000000     0.063890000000     0.994090000000     0.432804   
C376     C      0.765710000000     0.442920000000     0.983080000000     0.427007   
C377     C      0.563870000000     0.250730000000     0.506290000000     0.432985   
C378     C      0.943810000000     0.276160000000     0.997830000000     0.434624   
C379     C      0.499780000000     0.260790000000     0.562950000000     0.427772   
C380     C      0.507300000000     0.266680000000     0.942210000000     0.432015   
C381     C      0.760350000000     0.193240000000     0.008470000000     0.424515   
C382     C      0.756090000000     0.314890000000     0.000780000000     0.427293   
C383     C      0.695540000000     0.252350000000     0.503720000000     0.427331   
C384     C      0.818700000000     0.256090000000     0.505660000000     0.432601   
C385     C      0.892560000000     0.299410000000     0.515990000000    -0.0133529  
C386     C      0.895030000000     0.265030000000     0.967090000000    -0.0377838  
C387     C      0.868660000000     0.275410000000     0.531140000000    -0.0100481  
C388     C      0.872570000000     0.240570000000     0.982560000000     0.0956982  
C389     C      0.644720000000     0.274450000000     0.524600000000    -0.0129722  
C390     C      0.644530000000     0.237440000000     0.977030000000    -0.0379587  
C391     C      0.613670000000     0.258770000000     0.536400000000    -0.00662555 
C392     C      0.613960000000     0.220880000000     0.989990000000     0.0977352  
C393     C      0.745480000000     0.391770000000     0.960990000000    -0.0110489  
C394     C      0.795200000000     0.393040000000     0.495020000000    -0.0398455  
C395     C      0.731870000000     0.364100000000     0.980610000000    -0.00840898 
C396     C      0.781010000000     0.366980000000     0.516670000000     0.0933689  
C397     C      0.786160000000     0.144270000000     0.488060000000    -0.0100212  
C398     C      0.749290000000     0.141510000000     0.535310000000    -0.0387195  
C399     C      0.768440000000     0.116480000000     0.972580000000    -0.00998137 
C400     C      0.731350000000     0.112780000000     0.020240000000     0.0891015  
C401     C      0.721630000000     0.021190000000     0.848510000000    -0.0128589  
C402     C      0.751360000000     0.468770000000     0.850180000000    -0.0395757  
C403     C      0.739100000000     0.032000000000     0.878860000000    -0.00874103 
C404     C      0.772320000000     0.480850000000     0.877640000000     0.0933345  
C405     C      0.749210000000     0.469600000000     0.597310000000    -0.0123142  
C406     C      0.794450000000     0.009680000000     0.598170000000    -0.0417409  
C407     C      0.737710000000     0.481600000000     0.629690000000    -0.00937655 
C408     C      0.781550000000     0.023910000000     0.629310000000     0.0927091  
C409     C      0.486700000000     0.237720000000     0.863560000000    -0.0127364  
C410     C      0.540110000000     0.267030000000     0.862220000000    -0.0393985  
C411     C      0.977430000000     0.256500000000     0.893340000000    -0.00732638 
C412     C      0.029580000000     0.287410000000     0.890810000000     0.0922497  
C413     C      0.014400000000     0.284290000000     0.614740000000    -0.0127957  
C414     C      0.978280000000     0.235540000000     0.611820000000    -0.0405978  
C415     C      0.533700000000     0.268510000000     0.641450000000    -0.00749072 
C416     C      0.495940000000     0.221430000000     0.640770000000     0.0921251  
C417     C      0.642950000000     0.026010000000     0.712880000000    -0.0119362  
C418     C      0.642210000000     0.466260000000     0.716740000000    -0.0384082  
C419     C      0.612130000000     0.028400000000     0.732250000000    -0.0085157  
C420     C      0.608850000000     0.467130000000     0.733170000000     0.0935035  
C421     C      0.891170000000     0.480370000000     0.788130000000    -0.0122825  
C422     C      0.894090000000     0.035140000000     0.763990000000    -0.0361143  
C423     C      0.864140000000     0.471290000000     0.764490000000    -0.0102766  
C424     C      0.868270000000     0.026220000000     0.739650000000     0.0914891  
C425     C      0.976110000000     0.362500000000     0.740740000000    -0.0137426  
C426     C      0.532540000000     0.365240000000     0.763750000000    -0.0425374  
C427     C      0.984240000000     0.391050000000     0.718940000000    -0.00799347 
C428     C      0.540190000000     0.393160000000     0.741490000000     0.0979838  
C429     C      0.990190000000     0.139920000000     0.734930000000    -0.0119027  
C430     C      0.542530000000     0.139370000000     0.765450000000    -0.0390008  
C431     C      0.977060000000     0.113260000000     0.755840000000    -0.00577776 
C432     C      0.529540000000     0.111420000000     0.786070000000     0.0908152  
C433     C      0.004040000000     0.941700000000     0.240980000000     0.434531   
C434     C      0.504020000000     0.561730000000     0.262930000000     0.432544   
C435     C      0.942320000000     0.001450000000     0.266480000000     0.428726   
C436     C      0.561570000000     0.001560000000     0.237890000000     0.433212   
C437     C      0.011700000000     0.748790000000     0.191620000000     0.43384    
C438     C      0.011340000000     0.753720000000     0.312670000000     0.428276   
C439     C      0.514320000000     0.690540000000     0.253320000000     0.426247   
C440     C      0.507770000000     0.812920000000     0.250540000000     0.426345   
C441     C      0.692270000000     0.996820000000     0.229170000000     0.428796   
C442     C      0.814310000000     0.999310000000     0.248110000000     0.433157   
C443     C      0.761610000000     0.498810000000     0.179390000000     0.432143   
C444     C      0.744060000000     0.497040000000     0.299320000000     0.428771   
C445     C      0.756280000000     0.506830000000     0.428330000000     0.431548   
C446     C      0.765080000000     0.998210000000     0.048530000000     0.426437   
C447     C      0.755180000000     0.563880000000     0.494090000000     0.43222    
C448     C      0.765710000000     0.942920000000     0.483080000000     0.425758   
C449     C      0.563870000000     0.750730000000     0.006290000000     0.432252   
C450     C      0.943810000000     0.776160000000     0.497830000000     0.430552   
C451     C      0.499780000000     0.760790000000     0.062950000000     0.427454   
C452     C      0.507300000000     0.766680000000     0.442210000000     0.432827   
C453     C      0.760350000000     0.693240000000     0.508470000000     0.428936   
C454     C      0.756090000000     0.814890000000     0.500780000000     0.435252   
C455     C      0.695540000000     0.752350000000     0.003720000000     0.422586   
C456     C      0.818700000000     0.756090000000     0.005660000000     0.42801    
C457     C      0.892560000000     0.799410000000     0.015990000000    -0.0160753  
C458     C      0.895030000000     0.765030000000     0.467090000000    -0.0375292  
C459     C      0.868660000000     0.775410000000     0.031140000000    -0.0099071  
C460     C      0.872570000000     0.740570000000     0.482560000000     0.0932551  
C461     C      0.644720000000     0.774440000000     0.024590000000    -0.0131747  
C462     C      0.644530000000     0.737440000000     0.477030000000    -0.0391101  
C463     C      0.613670000000     0.758770000000     0.036400000000    -0.00674437 
C464     C      0.613960000000     0.720880000000     0.489990000000     0.0914424  
C465     C      0.745480000000     0.891780000000     0.460990000000    -0.011738   
C466     C      0.795200000000     0.893040000000     0.995020000000    -0.0311352  
C467     C      0.731870000000     0.864100000000     0.480610000000    -0.00776074 
C468     C      0.781010000000     0.866980000000     0.016670000000     0.0863563  
C469     C      0.786160000000     0.644270000000     0.988060000000    -0.00247896 
C470     C      0.749290000000     0.641510000000     0.035310000000    -0.0382972  
C471     C      0.768440000000     0.616480000000     0.472580000000    -0.00828598 
C472     C      0.731350000000     0.612770000000     0.520240000000     0.0919307  
C473     C      0.721630000000     0.521190000000     0.348510000000    -0.0120681  
C474     C      0.751360000000     0.968770000000     0.350180000000    -0.0396253  
C475     C      0.739100000000     0.532000000000     0.378860000000    -0.00884043 
C476     C      0.772320000000     0.980850000000     0.377640000000     0.0940931  
C477     C      0.749210000000     0.969600000000     0.097310000000    -0.0122095  
C478     C      0.794450000000     0.509690000000     0.098170000000    -0.0398313  
C479     C      0.737710000000     0.981600000000     0.129690000000    -0.00928965 
C480     C      0.781550000000     0.523910000000     0.129310000000     0.092985   
C481     C      0.486700000000     0.737720000000     0.363560000000    -0.0126917  
C482     C      0.540110000000     0.767030000000     0.362220000000    -0.0394067  
C483     C      0.977430000000     0.756500000000     0.393340000000    -0.00730815 
C484     C      0.029580000000     0.787410000000     0.390810000000     0.0922034  
C485     C      0.014400000000     0.784290000000     0.114740000000    -0.0128002  
C486     C      0.978280000000     0.735540000000     0.111820000000    -0.0406011  
C487     C      0.533700000000     0.768510000000     0.141450000000    -0.00748407 
C488     C      0.495940000000     0.721430000000     0.140770000000     0.0921151  
C489     C      0.642950000000     0.526010000000     0.212880000000    -0.0112928  
C490     C      0.642210000000     0.966260000000     0.216740000000    -0.0382513  
C491     C      0.612130000000     0.528410000000     0.232250000000    -0.00789508 
C492     C      0.608850000000     0.967130000000     0.233170000000     0.0935201  
C493     C      0.891170000000     0.980370000000     0.288130000000    -0.0116573  
C494     C      0.894090000000     0.535140000000     0.263990000000    -0.0359809  
C495     C      0.864140000000     0.971290000000     0.264490000000    -0.00952481 
C496     C      0.868270000000     0.526220000000     0.239650000000     0.0914829  
C497     C      0.976110000000     0.862500000000     0.240740000000    -0.0137239  
C498     C      0.532540000000     0.865240000000     0.263750000000    -0.0425258  
C499     C      0.984240000000     0.891050000000     0.218940000000    -0.00803189 
C500     C      0.540190000000     0.893160000000     0.241490000000     0.0979969  
C501     C      0.990190000000     0.639920000000     0.234930000000    -0.0118856  
C502     C      0.542530000000     0.639370000000     0.265450000000    -0.0389953  
C503     C      0.977060000000     0.613260000000     0.255840000000    -0.00578305 
C504     C      0.529540000000     0.611420000000     0.286070000000     0.0908134  
C505     C      0.004040000000     0.941700000000     0.740980000000     0.434512   
C506     C      0.504020000000     0.561730000000     0.762930000000     0.432529   
C507     C      0.942320000000     0.001450000000     0.766480000000     0.428696   
C508     C      0.561570000000     0.001560000000     0.737890000000     0.433163   
C509     C      0.011700000000     0.748790000000     0.691620000000     0.433835   
C510     C      0.011340000000     0.753720000000     0.812670000000     0.428281   
C511     C      0.514320000000     0.690540000000     0.753320000000     0.426247   
C512     C      0.507770000000     0.812920000000     0.750540000000     0.426345   
C513     C      0.692270000000     0.996820000000     0.729170000000     0.428812   
C514     C      0.814310000000     0.999310000000     0.748110000000     0.433178   
C515     C      0.761610000000     0.498810000000     0.679390000000     0.432142   
C516     C      0.744060000000     0.497040000000     0.799320000000     0.428768   
C517     C      0.756280000000     0.506830000000     0.928330000000     0.431793   
C518     C      0.765080000000     0.998210000000     0.548530000000     0.425889   
C519     C      0.755180000000     0.563880000000     0.994090000000     0.432906   
C520     C      0.765710000000     0.942920000000     0.983080000000     0.426758   
C521     C      0.563870000000     0.750730000000     0.506290000000     0.432978   
C522     C      0.943810000000     0.776160000000     0.997830000000     0.434631   
C523     C      0.499780000000     0.760790000000     0.562950000000     0.427767   
C524     C      0.507300000000     0.766680000000     0.942210000000     0.432007   
C525     C      0.760350000000     0.693240000000     0.008470000000     0.424498   
C526     C      0.756090000000     0.814890000000     0.000780000000     0.427392   
C527     C      0.695540000000     0.752350000000     0.503720000000     0.427231   
C528     C      0.818700000000     0.756090000000     0.505660000000     0.432597   
C529     C      0.892560000000     0.799410000000     0.515990000000    -0.0133598  
C530     C      0.895030000000     0.765030000000     0.967090000000    -0.0377874  
C531     C      0.868660000000     0.775410000000     0.531140000000    -0.0100477  
C532     C      0.872570000000     0.740570000000     0.982560000000     0.095705   
C533     C      0.644720000000     0.774440000000     0.524600000000    -0.0128783  
C534     C      0.644530000000     0.737440000000     0.977030000000    -0.0379618  
C535     C      0.613670000000     0.758770000000     0.536400000000    -0.00666614 
C536     C      0.613960000000     0.720880000000     0.989990000000     0.0977585  
C537     C      0.745480000000     0.891780000000     0.960990000000    -0.0110435  
C538     C      0.795200000000     0.893040000000     0.495020000000    -0.0398696  
C539     C      0.731870000000     0.864100000000     0.980610000000    -0.00842489 
C540     C      0.781010000000     0.866980000000     0.516670000000     0.0933751  
C541     C      0.786160000000     0.644270000000     0.488060000000    -0.0100083  
C542     C      0.749290000000     0.641510000000     0.535310000000    -0.0387182  
C543     C      0.768440000000     0.616480000000     0.972580000000    -0.00999946 
C544     C      0.731350000000     0.612770000000     0.020240000000     0.0891317  
C545     C      0.721630000000     0.521190000000     0.848510000000    -0.0120786  
C546     C      0.751360000000     0.968770000000     0.850180000000    -0.0396495  
C547     C      0.739100000000     0.532000000000     0.878860000000    -0.00883496 
C548     C      0.772320000000     0.980850000000     0.877640000000     0.094134   
C549     C      0.749210000000     0.969600000000     0.597310000000    -0.0122602  
C550     C      0.794450000000     0.509690000000     0.598170000000    -0.0399095  
C551     C      0.737710000000     0.981600000000     0.629690000000    -0.00926943 
C552     C      0.781550000000     0.523910000000     0.629310000000     0.0930362  
C553     C      0.486700000000     0.737720000000     0.863560000000    -0.0126947  
C554     C      0.540110000000     0.767030000000     0.862220000000    -0.0394319  
C555     C      0.977430000000     0.756500000000     0.893340000000    -0.00734645 
C556     C      0.029580000000     0.787410000000     0.890810000000     0.0922573  
C557     C      0.014400000000     0.784290000000     0.614740000000    -0.0128038  
C558     C      0.978280000000     0.735540000000     0.611820000000    -0.0406015  
C559     C      0.533700000000     0.768510000000     0.641450000000    -0.00748932 
C560     C      0.495940000000     0.721430000000     0.640770000000     0.0921254  
C561     C      0.642950000000     0.526010000000     0.712880000000    -0.0113122  
C562     C      0.642210000000     0.966260000000     0.716740000000    -0.0382718  
C563     C      0.612130000000     0.528410000000     0.732250000000    -0.00788875 
C564     C      0.608850000000     0.967130000000     0.733170000000     0.0935361  
C565     C      0.891170000000     0.980370000000     0.788130000000    -0.01167    
C566     C      0.894090000000     0.535140000000     0.763990000000    -0.0359898  
C567     C      0.864140000000     0.971290000000     0.764490000000    -0.00951668 
C568     C      0.868270000000     0.526220000000     0.739650000000     0.0914788  
C569     C      0.976110000000     0.862500000000     0.740740000000    -0.0137415  
C570     C      0.532540000000     0.865240000000     0.763750000000    -0.0425476  
C571     C      0.984240000000     0.891050000000     0.718940000000    -0.00800576 
C572     C      0.540190000000     0.893160000000     0.741490000000     0.0980064  
C573     C      0.990190000000     0.639920000000     0.734930000000    -0.0118995  
C574     C      0.542530000000     0.639370000000     0.765450000000    -0.039004   
C575     C      0.977060000000     0.613260000000     0.755840000000    -0.00578594 
C576     C      0.529540000000     0.611420000000     0.786070000000     0.0908217  
H1       H      0.382620000000     0.258430000000     0.046210000000     0.0395178  
H2       H      0.407820000000     0.310440000000     0.034840000000     0.0379493  
H3       H      0.388250000000     0.223390000000     0.995720000000     0.0280037  
H4       H      0.412070000000     0.252780000000     0.450570000000     0.0469593  
H5       H      0.351620000000     0.288780000000     0.046730000000     0.0376172  
H6       H      0.378420000000     0.318680000000     0.504150000000     0.0384287  
H7       H      0.380220000000     0.282230000000     0.453070000000     0.0463398  
H8       H      0.339390000000     0.205470000000     0.468930000000     0.0926511  
H9       H      0.343430000000     0.236800000000     0.441730000000     0.0962654  
H10      H      0.120420000000     0.239680000000     0.053620000000     0.0376761  
H11      H      0.159470000000     0.282020000000     0.045370000000     0.043192   
H12      H      0.121990000000     0.200490000000     0.505150000000     0.0210733  
H13      H      0.159640000000     0.219350000000     0.464460000000     0.0528963  
H14      H      0.098870000000     0.276790000000     0.049430000000     0.0381729  
H15      H      0.138060000000     0.296520000000     0.011280000000     0.0396317  
H16      H      0.137290000000     0.256130000000     0.459550000000     0.0484833  
H17      H      0.078370000000     0.191090000000     0.471190000000     0.0978521  
H18      H      0.083830000000     0.226610000000     0.450360000000     0.0878723  
H19      H      0.214390000000     0.374250000000     0.497990000000     0.0385887  
H20      H      0.225320000000     0.406680000000     0.451600000000     0.0398981  
H21      H      0.267960000000     0.379180000000     0.036410000000     0.0216387  
H22      H      0.311060000000     0.409060000000     0.009330000000     0.0495101  
H23      H      0.218170000000     0.347540000000     0.464820000000     0.0389714  
H24      H      0.258430000000     0.381350000000     0.440260000000     0.0380655  
H25      H      0.310170000000     0.381450000000     0.976280000000     0.0477054  
H26      H      0.300750000000     0.336350000000     0.050790000000     0.0967754  
H27      H      0.317450000000     0.332220000000     0.013140000000     0.0887113  
H28      H      0.249540000000     0.126550000000     0.456650000000     0.0393265  
H29      H      0.295950000000     0.160430000000     0.469370000000     0.0385259  
H30      H      0.209920000000     0.122490000000     0.507450000000     0.0209484  
H31      H      0.231970000000     0.155900000000     0.049680000000     0.0521971  
H32      H      0.285600000000     0.102730000000     0.457430000000     0.0406523  
H33      H      0.307050000000     0.134380000000     0.001500000000     0.03505    
H34      H      0.268480000000     0.132280000000     0.051420000000     0.0483403  
H35      H      0.200670000000     0.077510000000     0.538370000000     0.09851    
H36      H      0.239140000000     0.077580000000     0.055010000000     0.0915782  
H37      H      0.258630000000     0.048920000000     0.371870000000     0.0372884  
H38      H      0.216580000000     0.042420000000     0.333310000000     0.0428076  
H39      H      0.294170000000     0.992500000000     0.367340000000     0.022228   
H40      H      0.265750000000     0.451570000000     0.335720000000     0.0545636  
H41      H      0.221970000000     0.045570000000     0.394230000000     0.0379765  
H42      H      0.197910000000     0.510880000000     0.355610000000     0.039512   
H43      H      0.230080000000     0.455790000000     0.360010000000     0.049586   
H44      H      0.303080000000     0.458290000000     0.410050000000     0.0987479  
H45      H      0.263450000000     0.444610000000     0.411030000000     0.0904792  
H46      H      0.217030000000     0.998180000000     0.125710000000     0.0379405  
H47      H      0.228040000000     0.461310000000     0.083260000000     0.0423627  
H48      H      0.264930000000     0.044000000000     0.123140000000     0.0199363  
H49      H      0.306050000000     0.029150000000     0.084090000000     0.0527034  
H50      H      0.228280000000     0.460900000000     0.143600000000     0.0409951  
H51      H      0.265040000000     0.448400000000     0.101300000000     0.0389791  
H52      H      0.313170000000     0.491340000000     0.103730000000     0.0501498  
H53      H      0.301550000000     0.054980000000     0.162740000000     0.0931532  
H54      H      0.321340000000     0.518400000000     0.159580000000     0.0880426  
H55      H      0.462340000000     0.277260000000     0.385860000000     0.037121   
H56      H      0.464580000000     0.232860000000     0.349330000000     0.0429011  
H57      H      0.517350000000     0.309270000000     0.381450000000     0.0211527  
H58      H      0.055780000000     0.281930000000     0.346590000000     0.0539866  
H59      H      0.462130000000     0.241140000000     0.408910000000     0.0382145  
H60      H      0.996640000000     0.214150000000     0.371150000000     0.0405301  
H61      H      0.054660000000     0.246330000000     0.370840000000     0.0493602  
H62      H      0.553470000000     0.316950000000     0.423140000000     0.0973617  
H63      H      0.068110000000     0.277960000000     0.421780000000     0.0871029  
H64      H      0.053770000000     0.254330000000     0.130830000000     0.039576   
H65      H      0.031090000000     0.299550000000     0.100560000000     0.0424093  
H66      H      0.015050000000     0.205310000000     0.131170000000     0.0206316  
H67      H      0.470590000000     0.215760000000     0.095780000000     0.0535766  
H68      H      0.044310000000     0.287550000000     0.156810000000     0.0385612  
H69      H      0.495620000000     0.300040000000     0.125440000000     0.0415675  
H70      H      0.456000000000     0.247850000000     0.120200000000     0.0465136  
H71      H      0.986140000000     0.190020000000     0.177990000000     0.0911478  
H72      H      0.454110000000     0.215030000000     0.168130000000     0.0974129  
H73      H      0.118620000000     0.032370000000     0.257610000000     0.0392165  
H74      H      0.157540000000     0.048050000000     0.216800000000     0.04406    
H75      H      0.113040000000     0.462750000000     0.259010000000     0.0228599  
H76      H      0.155810000000     0.445030000000     0.225520000000     0.0554418  
H77      H      0.097950000000     0.049610000000     0.224140000000     0.0311688  
H78      H      0.136340000000     0.025090000000     0.187280000000     0.0397787  
H79      H      0.138510000000     0.462930000000     0.190750000000     0.0500454  
H80      H      0.079160000000     0.429590000000     0.234450000000     0.0831154  
H81      H      0.071250000000     0.449750000000     0.203740000000     0.101058   
H82      H      0.375280000000     0.458370000000     0.244130000000     0.0404774  
H83      H      0.406000000000     0.458820000000     0.293730000000     0.0362066  
H84      H      0.381220000000     0.516630000000     0.218490000000     0.0246873  
H85      H      0.411130000000     0.053030000000     0.253640000000     0.0471926  
H86      H      0.347230000000     0.454460000000     0.276530000000     0.0411587  
H87      H      0.379700000000     0.989090000000     0.310410000000     0.0405162  
H88      H      0.382070000000     0.046400000000     0.284850000000     0.0457656  
H89      H      0.336200000000     0.050870000000     0.210150000000     0.0918955  
H90      H      0.339140000000     0.066520000000     0.248640000000     0.0968147  
H91      H      0.493100000000     0.381520000000     0.195850000000     0.0383476  
H92      H      0.459120000000     0.346260000000     0.228050000000     0.042304   
H93      H      0.049420000000     0.381970000000     0.219180000000     0.0212675  
H94      H      0.054860000000     0.351000000000     0.267980000000     0.0570428  
H95      H      0.461940000000     0.405330000000     0.214500000000     0.0365977  
H96      H      0.463640000000     0.371820000000     0.262240000000     0.0419269  
H97      H      0.024700000000     0.375210000000     0.287030000000     0.0521105  
H98      H      0.075580000000     0.425200000000     0.240090000000     0.0796862  
H99      H      0.059140000000     0.427580000000     0.274070000000     0.107265   
H100     H      0.463880000000     0.124480000000     0.276020000000     0.0382391  
H101     H      0.469890000000     0.155400000000     0.226880000000     0.0399498  
H102     H      0.018620000000     0.122250000000     0.307740000000     0.0205848  
H103     H      0.058660000000     0.154790000000     0.280110000000     0.0519018  
H104     H      0.459330000000     0.098640000000     0.242180000000     0.037781   
H105     H      0.501060000000     0.128790000000     0.213420000000     0.0408083  
H106     H      0.057030000000     0.129270000000     0.245560000000     0.0478914  
H107     H      0.049980000000     0.076120000000     0.314690000000     0.0976667  
H108     H      0.065630000000     0.077530000000     0.276460000000     0.0893575  
H109     H      0.382620000000     0.258430000000     0.546210000000     0.0402068  
H110     H      0.407820000000     0.310440000000     0.534840000000     0.0378957  
H111     H      0.388250000000     0.223390000000     0.495720000000     0.0273385  
H112     H      0.412070000000     0.252780000000     0.950570000000     0.0471246  
H113     H      0.351620000000     0.288780000000     0.546730000000     0.0376637  
H114     H      0.378420000000     0.318680000000     0.004150000000     0.0379777  
H115     H      0.380220000000     0.282230000000     0.953070000000     0.0470812  
H116     H      0.339390000000     0.205470000000     0.968930000000     0.093484   
H117     H      0.343430000000     0.236800000000     0.941730000000     0.0964349  
H118     H      0.120420000000     0.239680000000     0.553620000000     0.0378352  
H119     H      0.159470000000     0.282020000000     0.545370000000     0.0433158  
H120     H      0.121990000000     0.200490000000     0.005150000000     0.0174198  
H121     H      0.159640000000     0.219350000000     0.964460000000     0.0534215  
H122     H      0.098870000000     0.276790000000     0.549430000000     0.0382824  
H123     H      0.138060000000     0.296520000000     0.511280000000     0.0405671  
H124     H      0.137290000000     0.256130000000     0.959550000000     0.048931   
H125     H      0.078370000000     0.191090000000     0.971190000000     0.0992399  
H126     H      0.083830000000     0.226610000000     0.950360000000     0.0885039  
H127     H      0.214390000000     0.374250000000     0.997990000000     0.04001    
H128     H      0.225320000000     0.406680000000     0.951600000000     0.0399776  
H129     H      0.267960000000     0.379180000000     0.536420000000     0.020979   
H130     H      0.311060000000     0.409060000000     0.509330000000     0.0538522  
H131     H      0.218170000000     0.347540000000     0.964820000000     0.0397231  
H132     H      0.258430000000     0.381350000000     0.940260000000     0.0380012  
H133     H      0.310170000000     0.381450000000     0.476280000000     0.048559   
H134     H      0.300750000000     0.336350000000     0.550790000000     0.0969468  
H135     H      0.317450000000     0.332220000000     0.513140000000     0.0895757  
H136     H      0.249540000000     0.126550000000     0.956650000000     0.0402047  
H137     H      0.295950000000     0.160430000000     0.969370000000     0.0375237  
H138     H      0.209920000000     0.122490000000     0.007450000000     0.0203565  
H139     H      0.231970000000     0.155900000000     0.549680000000     0.0523773  
H140     H      0.285600000000     0.102730000000     0.957430000000     0.041392   
H141     H      0.307050000000     0.134380000000     0.501500000000     0.0392275  
H142     H      0.268480000000     0.132280000000     0.551420000000     0.048789   
H143     H      0.200670000000     0.077510000000     0.038370000000     0.0975581  
H144     H      0.239140000000     0.077580000000     0.555010000000     0.0922219  
H145     H      0.258630000000     0.048920000000     0.871870000000     0.037339   
H146     H      0.216580000000     0.042420000000     0.833310000000     0.0428525  
H147     H      0.294170000000     0.992500000000     0.867340000000     0.0222926  
H148     H      0.265750000000     0.451570000000     0.835720000000     0.054597   
H149     H      0.221970000000     0.045570000000     0.894230000000     0.0381251  
H150     H      0.197910000000     0.510880000000     0.855610000000     0.0396259  
H151     H      0.230080000000     0.455790000000     0.860010000000     0.0496559  
H152     H      0.303080000000     0.458290000000     0.910050000000     0.0989179  
H153     H      0.263450000000     0.444610000000     0.911030000000     0.0904989  
H154     H      0.217030000000     0.998180000000     0.625710000000     0.0380767  
H155     H      0.228040000000     0.461310000000     0.583260000000     0.0427781  
H156     H      0.264930000000     0.044000000000     0.623140000000     0.0200086  
H157     H      0.306050000000     0.029150000000     0.584090000000     0.0530537  
H158     H      0.228280000000     0.460900000000     0.643600000000     0.0410716  
H159     H      0.265040000000     0.448400000000     0.601300000000     0.0392033  
H160     H      0.313170000000     0.491340000000     0.603730000000     0.0503692  
H161     H      0.301550000000     0.054980000000     0.662740000000     0.0931914  
H162     H      0.321340000000     0.518400000000     0.659580000000     0.0880976  
H163     H      0.462340000000     0.277260000000     0.885860000000     0.0372697  
H164     H      0.464580000000     0.232860000000     0.849330000000     0.0429572  
H165     H      0.517350000000     0.309270000000     0.881450000000     0.0212982  
H166     H      0.055780000000     0.281930000000     0.846590000000     0.054042   
H167     H      0.462130000000     0.241140000000     0.908910000000     0.0383955  
H168     H      0.996640000000     0.214150000000     0.871150000000     0.0406751  
H169     H      0.054660000000     0.246330000000     0.870840000000     0.0494492  
H170     H      0.553470000000     0.316950000000     0.923140000000     0.09791    
H171     H      0.068110000000     0.277960000000     0.921780000000     0.0874931  
H172     H      0.053770000000     0.254330000000     0.630830000000     0.0396121  
H173     H      0.031090000000     0.299550000000     0.600560000000     0.0425171  
H174     H      0.015050000000     0.205310000000     0.631170000000     0.0207258  
H175     H      0.470590000000     0.215760000000     0.595780000000     0.0538339  
H176     H      0.044310000000     0.287550000000     0.656810000000     0.0385954  
H177     H      0.495620000000     0.300040000000     0.625440000000     0.0416502  
H178     H      0.456000000000     0.247850000000     0.620200000000     0.0466161  
H179     H      0.986140000000     0.190020000000     0.677990000000     0.0911802  
H180     H      0.454110000000     0.215030000000     0.668130000000     0.0974474  
H181     H      0.118620000000     0.032370000000     0.757610000000     0.03924    
H182     H      0.157540000000     0.048050000000     0.716800000000     0.0440896  
H183     H      0.113040000000     0.462750000000     0.759010000000     0.0228861  
H184     H      0.155810000000     0.445030000000     0.725520000000     0.0554715  
H185     H      0.097950000000     0.049610000000     0.724140000000     0.0312077  
H186     H      0.136340000000     0.025090000000     0.687280000000     0.039877   
H187     H      0.138510000000     0.462930000000     0.690750000000     0.0501419  
H188     H      0.079160000000     0.429590000000     0.734450000000     0.083121   
H189     H      0.071250000000     0.449750000000     0.703740000000     0.101131   
H190     H      0.375280000000     0.458370000000     0.744130000000     0.0404992  
H191     H      0.406000000000     0.458820000000     0.793730000000     0.036286   
H192     H      0.381220000000     0.516630000000     0.718490000000     0.0247328  
H193     H      0.411130000000     0.053030000000     0.753640000000     0.0472244  
H194     H      0.347230000000     0.454460000000     0.776530000000     0.0411831  
H195     H      0.379700000000     0.989090000000     0.810410000000     0.0406182  
H196     H      0.382070000000     0.046400000000     0.784850000000     0.0458161  
H197     H      0.336200000000     0.050870000000     0.710150000000     0.0919189  
H198     H      0.339140000000     0.066520000000     0.748640000000     0.0968264  
H199     H      0.493100000000     0.381520000000     0.695840000000     0.038399   
H200     H      0.459120000000     0.346260000000     0.728050000000     0.0423261  
H201     H      0.049420000000     0.381970000000     0.719180000000     0.0213003  
H202     H      0.054860000000     0.351000000000     0.767980000000     0.057073   
H203     H      0.461940000000     0.405330000000     0.714500000000     0.0366382  
H204     H      0.463640000000     0.371820000000     0.762240000000     0.0419666  
H205     H      0.024700000000     0.375210000000     0.787030000000     0.0521815  
H206     H      0.075580000000     0.425200000000     0.740090000000     0.0796886  
H207     H      0.059140000000     0.427580000000     0.774070000000     0.107315   
H208     H      0.463880000000     0.124480000000     0.776020000000     0.0382837  
H209     H      0.469890000000     0.155400000000     0.726880000000     0.0399764  
H210     H      0.018620000000     0.122250000000     0.807740000000     0.0206801  
H211     H      0.058660000000     0.154790000000     0.780110000000     0.0519372  
H212     H      0.459330000000     0.098640000000     0.742180000000     0.0378151  
H213     H      0.501060000000     0.128790000000     0.713420000000     0.0408647  
H214     H      0.057030000000     0.129270000000     0.745560000000     0.0479135  
H215     H      0.049980000000     0.076120000000     0.814690000000     0.0978054  
H216     H      0.065630000000     0.077530000000     0.776460000000     0.0893796  
H217     H      0.382620000000     0.758430000000     0.046210000000     0.0395213  
H218     H      0.407820000000     0.810440000000     0.034840000000     0.037985   
H219     H      0.388250000000     0.723390000000     0.995720000000     0.0280178  
H220     H      0.412070000000     0.752780000000     0.450570000000     0.0469683  
H221     H      0.351620000000     0.788780000000     0.046730000000     0.0376266  
H222     H      0.378420000000     0.818680000000     0.504150000000     0.0384608  
H223     H      0.380220000000     0.782230000000     0.453070000000     0.0463515  
H224     H      0.339390000000     0.705470000000     0.468930000000     0.0926598  
H225     H      0.343430000000     0.736800000000     0.441730000000     0.0962697  
H226     H      0.120420000000     0.739680000000     0.053620000000     0.0376902  
H227     H      0.159470000000     0.782020000000     0.045370000000     0.0431811  
H228     H      0.121990000000     0.700490000000     0.505150000000     0.021091   
H229     H      0.159640000000     0.719350000000     0.464460000000     0.0529123  
H230     H      0.098870000000     0.776790000000     0.049430000000     0.0381971  
H231     H      0.138060000000     0.796520000000     0.011280000000     0.0396241  
H232     H      0.137290000000     0.756130000000     0.459550000000     0.0484904  
H233     H      0.078370000000     0.691090000000     0.471190000000     0.0978823  
H234     H      0.083830000000     0.726610000000     0.450360000000     0.0878788  
H235     H      0.214390000000     0.874250000000     0.497990000000     0.0386425  
H236     H      0.225320000000     0.906680000000     0.451600000000     0.0399861  
H237     H      0.267960000000     0.879180000000     0.036410000000     0.0216694  
H238     H      0.311060000000     0.909060000000     0.009330000000     0.0495958  
H239     H      0.218170000000     0.847540000000     0.464820000000     0.038999   
H240     H      0.258430000000     0.881350000000     0.440260000000     0.0380848  
H241     H      0.310170000000     0.881450000000     0.976280000000     0.0477492  
H242     H      0.300750000000     0.836350000000     0.050790000000     0.0967914  
H243     H      0.317450000000     0.832220000000     0.013140000000     0.0887184  
H244     H      0.249540000000     0.626550000000     0.456650000000     0.0393409  
H245     H      0.295950000000     0.660440000000     0.469370000000     0.0385375  
H246     H      0.209920000000     0.622490000000     0.507450000000     0.020966   
H247     H      0.231970000000     0.655900000000     0.049680000000     0.0522081  
H248     H      0.285600000000     0.602730000000     0.457430000000     0.0406925  
H249     H      0.307050000000     0.634380000000     0.001500000000     0.0350557  
H250     H      0.268480000000     0.632280000000     0.051420000000     0.0483541  
H251     H      0.200670000000     0.577500000000     0.538370000000     0.0985909  
H252     H      0.239140000000     0.577580000000     0.055010000000     0.0916731  
H253     H      0.258630000000     0.548920000000     0.371870000000     0.0374473  
H254     H      0.216580000000     0.542420000000     0.333310000000     0.0427694  
H255     H      0.294170000000     0.492500000000     0.367340000000     0.022054   
H256     H      0.265750000000     0.951570000000     0.335720000000     0.0545967  
H257     H      0.221970000000     0.545570000000     0.394230000000     0.0380416  
H258     H      0.197910000000     0.010880000000     0.355610000000     0.0393658  
H259     H      0.230080000000     0.955790000000     0.360010000000     0.0497977  
H260     H      0.303080000000     0.958290000000     0.410050000000     0.0990035  
H261     H      0.263450000000     0.944610000000     0.411030000000     0.0906653  
H262     H      0.217030000000     0.498180000000     0.125710000000     0.0376273  
H263     H      0.228040000000     0.961310000000     0.083260000000     0.042439   
H264     H      0.264930000000     0.544000000000     0.123140000000     0.0200522  
H265     H      0.306050000000     0.529150000000     0.084090000000     0.0524965  
H266     H      0.228280000000     0.960900000000     0.143600000000     0.0410221  
H267     H      0.265040000000     0.948400000000     0.101300000000     0.0390379  
H268     H      0.313170000000     0.991340000000     0.103730000000     0.0512514  
H269     H      0.301550000000     0.554980000000     0.162740000000     0.093198   
H270     H      0.321340000000     0.018400000000     0.159580000000     0.0877263  
H271     H      0.462340000000     0.777260000000     0.385860000000     0.0371334  
H272     H      0.464580000000     0.732860000000     0.349330000000     0.0429032  
H273     H      0.517350000000     0.809270000000     0.381450000000     0.0211703  
H274     H      0.055780000000     0.781930000000     0.346590000000     0.0539956  
H275     H      0.462130000000     0.741140000000     0.408910000000     0.0382295  
H276     H      0.996640000000     0.714150000000     0.371150000000     0.0405477  
H277     H      0.054660000000     0.746330000000     0.370840000000     0.0493814  
H278     H      0.553470000000     0.816950000000     0.423140000000     0.0974041  
H279     H      0.068110000000     0.777960000000     0.421780000000     0.0871107  
H280     H      0.053770000000     0.754330000000     0.130830000000     0.0395816  
H281     H      0.031090000000     0.799550000000     0.100560000000     0.042439   
H282     H      0.015050000000     0.705310000000     0.131170000000     0.0206449  
H283     H      0.470590000000     0.715760000000     0.095780000000     0.0535905  
H284     H      0.044310000000     0.787550000000     0.156810000000     0.0385724  
H285     H      0.495620000000     0.800040000000     0.125440000000     0.0415948  
H286     H      0.456000000000     0.747850000000     0.120200000000     0.0465213  
H287     H      0.986140000000     0.690020000000     0.177990000000     0.0911547  
H288     H      0.454110000000     0.715030000000     0.168130000000     0.0974163  
H289     H      0.118620000000     0.532370000000     0.257610000000     0.0393436  
H290     H      0.157540000000     0.548050000000     0.216800000000     0.0440305  
H291     H      0.113040000000     0.962750000000     0.259010000000     0.0230056  
H292     H      0.155810000000     0.945030000000     0.225520000000     0.0554362  
H293     H      0.097950000000     0.549610000000     0.224140000000     0.0310982  
H294     H      0.136340000000     0.525090000000     0.187280000000     0.0399585  
H295     H      0.138510000000     0.962930000000     0.190750000000     0.0502024  
H296     H      0.079160000000     0.929600000000     0.234450000000     0.0830857  
H297     H      0.071250000000     0.949750000000     0.203740000000     0.101291   
H298     H      0.375280000000     0.958370000000     0.244130000000     0.0405632  
H299     H      0.406000000000     0.958810000000     0.293730000000     0.0362207  
H300     H      0.381220000000     0.016630000000     0.218490000000     0.0244794  
H301     H      0.411130000000     0.553030000000     0.253640000000     0.047183   
H302     H      0.347230000000     0.954460000000     0.276530000000     0.0410491  
H303     H      0.379700000000     0.489090000000     0.310410000000     0.0403067  
H304     H      0.382070000000     0.546400000000     0.284850000000     0.0459169  
H305     H      0.336200000000     0.550870000000     0.210150000000     0.091962   
H306     H      0.339140000000     0.566520000000     0.248640000000     0.0968428  
H307     H      0.493100000000     0.881520000000     0.195850000000     0.0384074  
H308     H      0.459120000000     0.846260000000     0.228050000000     0.0423181  
H309     H      0.049420000000     0.881970000000     0.219180000000     0.0212896  
H310     H      0.054860000000     0.851000000000     0.267980000000     0.0570519  
H311     H      0.461940000000     0.905330000000     0.214500000000     0.0366989  
H312     H      0.463640000000     0.871820000000     0.262240000000     0.041953   
H313     H      0.024700000000     0.875210000000     0.287030000000     0.0521365  
H314     H      0.075580000000     0.925200000000     0.240090000000     0.0797844  
H315     H      0.059140000000     0.927580000000     0.274070000000     0.107304   
H316     H      0.463880000000     0.624470000000     0.276020000000     0.0382718  
H317     H      0.469890000000     0.655400000000     0.226880000000     0.0399563  
H318     H      0.018620000000     0.622250000000     0.307740000000     0.0206262  
H319     H      0.058660000000     0.654790000000     0.280110000000     0.0519168  
H320     H      0.459330000000     0.598640000000     0.242180000000     0.0378062  
H321     H      0.501060000000     0.628790000000     0.213420000000     0.0408268  
H322     H      0.057030000000     0.629270000000     0.245560000000     0.0479068  
H323     H      0.049980000000     0.576110000000     0.314690000000     0.0977688  
H324     H      0.065630000000     0.577530000000     0.276460000000     0.0894206  
H325     H      0.382620000000     0.758430000000     0.546210000000     0.0402128  
H326     H      0.407820000000     0.810440000000     0.534840000000     0.0379314  
H327     H      0.388250000000     0.723390000000     0.495720000000     0.0273504  
H328     H      0.412070000000     0.752780000000     0.950570000000     0.0471342  
H329     H      0.351620000000     0.788780000000     0.546730000000     0.0376732  
H330     H      0.378420000000     0.818680000000     0.004150000000     0.0380082  
H331     H      0.380220000000     0.782230000000     0.953070000000     0.0470949  
H332     H      0.339390000000     0.705470000000     0.968930000000     0.0934958  
H333     H      0.343430000000     0.736800000000     0.941730000000     0.0964398  
H334     H      0.120420000000     0.739680000000     0.553620000000     0.0378501  
H335     H      0.159470000000     0.782020000000     0.545370000000     0.0433051  
H336     H      0.121990000000     0.700490000000     0.005150000000     0.0174233  
H337     H      0.159640000000     0.719350000000     0.964460000000     0.0534397  
H338     H      0.098870000000     0.776790000000     0.549430000000     0.038307   
H339     H      0.138060000000     0.796520000000     0.511280000000     0.0405624  
H340     H      0.137290000000     0.756130000000     0.959550000000     0.0489394  
H341     H      0.078370000000     0.691090000000     0.971190000000     0.0992753  
H342     H      0.083830000000     0.726610000000     0.950360000000     0.0885125  
H343     H      0.214390000000     0.874250000000     0.997990000000     0.0400665  
H344     H      0.225320000000     0.906680000000     0.951600000000     0.0400661  
H345     H      0.267960000000     0.879180000000     0.536420000000     0.0210082  
H346     H      0.311060000000     0.909060000000     0.509330000000     0.053948   
H347     H      0.218170000000     0.847540000000     0.964820000000     0.0397524  
H348     H      0.258430000000     0.881350000000     0.940260000000     0.0380207  
H349     H      0.310170000000     0.881450000000     0.476280000000     0.0486046  
H350     H      0.300750000000     0.836350000000     0.550790000000     0.0969634  
H351     H      0.317450000000     0.832220000000     0.513140000000     0.0895853  
H352     H      0.249540000000     0.626550000000     0.956650000000     0.0402229  
H353     H      0.295950000000     0.660440000000     0.969370000000     0.0375317  
H354     H      0.209920000000     0.622490000000     0.007450000000     0.0203709  
H355     H      0.231970000000     0.655900000000     0.549680000000     0.0523893  
H356     H      0.285600000000     0.602730000000     0.957430000000     0.0414356  
H357     H      0.307050000000     0.634380000000     0.501500000000     0.039253   
H358     H      0.268480000000     0.632280000000     0.551420000000     0.0488053  
H359     H      0.200670000000     0.577500000000     0.038370000000     0.0976315  
H360     H      0.239140000000     0.577580000000     0.555010000000     0.0923225  
H361     H      0.258630000000     0.548920000000     0.871870000000     0.0374997  
H362     H      0.216580000000     0.542420000000     0.833310000000     0.0428142  
H363     H      0.294170000000     0.492500000000     0.867340000000     0.0221179  
H364     H      0.265750000000     0.951570000000     0.835720000000     0.0546303  
H365     H      0.221970000000     0.545570000000     0.894230000000     0.0381915  
H366     H      0.197910000000     0.010880000000     0.855610000000     0.0394771  
H367     H      0.230080000000     0.955790000000     0.860010000000     0.0498694  
H368     H      0.303080000000     0.958290000000     0.910050000000     0.0991755  
H369     H      0.263450000000     0.944610000000     0.911030000000     0.0906868  
H370     H      0.217030000000     0.498180000000     0.625710000000     0.0377602  
H371     H      0.228040000000     0.961310000000     0.583260000000     0.0428554  
H372     H      0.264930000000     0.544000000000     0.623140000000     0.0201271  
H373     H      0.306050000000     0.529150000000     0.584090000000     0.0528449  
H374     H      0.228280000000     0.960900000000     0.643600000000     0.0410988  
H375     H      0.265040000000     0.948400000000     0.601300000000     0.039263   
H376     H      0.313170000000     0.991340000000     0.603730000000     0.0514878  
H377     H      0.301550000000     0.554980000000     0.662740000000     0.0932371  
H378     H      0.321340000000     0.018400000000     0.659580000000     0.087776   
H379     H      0.462340000000     0.777260000000     0.885860000000     0.0372824  
H380     H      0.464580000000     0.732860000000     0.849330000000     0.0429596  
H381     H      0.517350000000     0.809270000000     0.881450000000     0.021316   
H382     H      0.055780000000     0.781930000000     0.846590000000     0.0540511  
H383     H      0.462130000000     0.741140000000     0.908910000000     0.0384111  
H384     H      0.996640000000     0.714150000000     0.871150000000     0.0406934  
H385     H      0.054660000000     0.746330000000     0.870840000000     0.0494708  
H386     H      0.553470000000     0.816950000000     0.923140000000     0.0979536  
H387     H      0.068110000000     0.777960000000     0.921780000000     0.087502   
H388     H      0.053770000000     0.754330000000     0.630830000000     0.0396179  
H389     H      0.031090000000     0.799550000000     0.600560000000     0.0425472  
H390     H      0.015050000000     0.705310000000     0.631170000000     0.0207398  
H391     H      0.470590000000     0.715760000000     0.595780000000     0.0538492  
H392     H      0.044310000000     0.787550000000     0.656810000000     0.0386068  
H393     H      0.495620000000     0.800040000000     0.625440000000     0.0416778  
H394     H      0.456000000000     0.747850000000     0.620200000000     0.0466242  
H395     H      0.986140000000     0.690020000000     0.677990000000     0.0911873  
H396     H      0.454110000000     0.715030000000     0.668130000000     0.097451   
H397     H      0.118620000000     0.532370000000     0.757610000000     0.0393684  
H398     H      0.157540000000     0.548050000000     0.716800000000     0.04406    
H399     H      0.113040000000     0.962750000000     0.759010000000     0.023033   
H400     H      0.155810000000     0.945030000000     0.725520000000     0.0554657  
H401     H      0.097950000000     0.549610000000     0.724140000000     0.0311359  
H402     H      0.136340000000     0.525090000000     0.687280000000     0.0400604  
H403     H      0.138510000000     0.962930000000     0.690750000000     0.0503007  
H404     H      0.079160000000     0.929600000000     0.734450000000     0.0830914  
H405     H      0.071250000000     0.949750000000     0.703740000000     0.101367   
H406     H      0.375280000000     0.958370000000     0.744130000000     0.0405859  
H407     H      0.406000000000     0.958810000000     0.793730000000     0.0363002  
H408     H      0.381220000000     0.016630000000     0.718490000000     0.0245214  
H409     H      0.411130000000     0.553030000000     0.753640000000     0.0472148  
H410     H      0.347230000000     0.954460000000     0.776530000000     0.0410721  
H411     H      0.379700000000     0.489090000000     0.810410000000     0.0404075  
H412     H      0.382070000000     0.546400000000     0.784850000000     0.0459692  
H413     H      0.336200000000     0.550870000000     0.710150000000     0.0919864  
H414     H      0.339140000000     0.566520000000     0.748640000000     0.0968549  
H415     H      0.493100000000     0.881520000000     0.695840000000     0.0384595  
H416     H      0.459120000000     0.846260000000     0.728050000000     0.0423404  
H417     H      0.049420000000     0.881970000000     0.719180000000     0.0213226  
H418     H      0.054860000000     0.851000000000     0.767980000000     0.0570821  
H419     H      0.461940000000     0.905330000000     0.714500000000     0.0367406  
H420     H      0.463640000000     0.871820000000     0.762240000000     0.0419928  
H421     H      0.024700000000     0.875210000000     0.787030000000     0.0522076  
H422     H      0.075580000000     0.925200000000     0.740090000000     0.079787   
H423     H      0.059140000000     0.927580000000     0.774070000000     0.107354   
H424     H      0.463880000000     0.624470000000     0.776020000000     0.0383168  
H425     H      0.469890000000     0.655400000000     0.726880000000     0.0399832  
H426     H      0.018620000000     0.622250000000     0.807740000000     0.0207222  
H427     H      0.058660000000     0.654790000000     0.780110000000     0.0519524  
H428     H      0.459330000000     0.598640000000     0.742180000000     0.0378407  
H429     H      0.501060000000     0.628790000000     0.713420000000     0.0408838  
H430     H      0.057030000000     0.629270000000     0.745560000000     0.0479292  
H431     H      0.049980000000     0.576110000000     0.814690000000     0.0979097  
H432     H      0.065630000000     0.577530000000     0.776460000000     0.0894437  
H433     H      0.882620000000     0.258430000000     0.046210000000     0.039518   
H434     H      0.907820000000     0.310440000000     0.034840000000     0.0379515  
H435     H      0.888240000000     0.223390000000     0.995720000000     0.0279965  
H436     H      0.912070000000     0.252780000000     0.450570000000     0.0469611  
H437     H      0.851620000000     0.288780000000     0.046730000000     0.0376172  
H438     H      0.878420000000     0.318680000000     0.504150000000     0.0384298  
H439     H      0.880220000000     0.282230000000     0.453070000000     0.04634    
H440     H      0.839390000000     0.205470000000     0.468930000000     0.0926513  
H441     H      0.843430000000     0.236800000000     0.441730000000     0.0962655  
H442     H      0.620420000000     0.239680000000     0.053620000000     0.0376756  
H443     H      0.659470000000     0.282020000000     0.045370000000     0.0431919  
H444     H      0.621990000000     0.200490000000     0.505150000000     0.0210738  
H445     H      0.659640000000     0.219350000000     0.464460000000     0.0528964  
H446     H      0.598870000000     0.276790000000     0.049430000000     0.0381728  
H447     H      0.638060000000     0.296520000000     0.011280000000     0.0396316  
H448     H      0.637290000000     0.256130000000     0.459550000000     0.048483   
H449     H      0.578370000000     0.191090000000     0.471190000000     0.0978547  
H450     H      0.583830000000     0.226610000000     0.450360000000     0.0878721  
H451     H      0.714390000000     0.374250000000     0.497990000000     0.0385885  
H452     H      0.725320000000     0.406680000000     0.451600000000     0.039898   
H453     H      0.767960000000     0.379180000000     0.036410000000     0.0216388  
H454     H      0.811060000000     0.409060000000     0.009330000000     0.0495112  
H455     H      0.718170000000     0.347540000000     0.464820000000     0.0389712  
H456     H      0.758430000000     0.381350000000     0.440260000000     0.0380655  
H457     H      0.810170000000     0.381450000000     0.976280000000     0.0477062  
H458     H      0.800750000000     0.336350000000     0.050790000000     0.0967754  
H459     H      0.817450000000     0.332220000000     0.013140000000     0.0887115  
H460     H      0.749540000000     0.126550000000     0.456650000000     0.0393264  
H461     H      0.795950000000     0.160430000000     0.469370000000     0.0385264  
H462     H      0.709920000000     0.122490000000     0.507450000000     0.0209469  
H463     H      0.731980000000     0.155900000000     0.049680000000     0.052216   
H464     H      0.785600000000     0.102730000000     0.457430000000     0.0406525  
H465     H      0.807050000000     0.134380000000     0.001500000000     0.035051   
H466     H      0.768480000000     0.132280000000     0.051420000000     0.0483468  
H467     H      0.700670000000     0.077510000000     0.538370000000     0.0985103  
H468     H      0.739140000000     0.077580000000     0.055010000000     0.0915776  
H469     H      0.758630000000     0.048920000000     0.371870000000     0.0372885  
H470     H      0.716580000000     0.042420000000     0.333310000000     0.0428076  
H471     H      0.794170000000     0.992500000000     0.367340000000     0.0222284  
H472     H      0.765750000000     0.451570000000     0.335720000000     0.0545635  
H473     H      0.721970000000     0.045570000000     0.394230000000     0.0379767  
H474     H      0.697910000000     0.510880000000     0.355610000000     0.0395122  
H475     H      0.730080000000     0.455790000000     0.360010000000     0.0495859  
H476     H      0.803080000000     0.458290000000     0.410050000000     0.0987487  
H477     H      0.763450000000     0.444610000000     0.411030000000     0.0904792  
H478     H      0.717030000000     0.998180000000     0.125710000000     0.0379344  
H479     H      0.728030000000     0.461310000000     0.083260000000     0.0423668  
H480     H      0.764920000000     0.044000000000     0.123140000000     0.01994    
H481     H      0.806050000000     0.029150000000     0.084090000000     0.0527046  
H482     H      0.728280000000     0.460900000000     0.143600000000     0.0409897  
H483     H      0.765040000000     0.448400000000     0.101300000000     0.0389883  
H484     H      0.813170000000     0.491340000000     0.103730000000     0.0501534  
H485     H      0.801550000000     0.054980000000     0.162740000000     0.0931559  
H486     H      0.821340000000     0.518400000000     0.159580000000     0.0880522  
H487     H      0.962350000000     0.277260000000     0.385860000000     0.0371485  
H488     H      0.964580000000     0.232860000000     0.349330000000     0.0428965  
H489     H      0.017350000000     0.309270000000     0.381450000000     0.0211467  
H490     H      0.555780000000     0.281930000000     0.346590000000     0.0539865  
H491     H      0.962140000000     0.241140000000     0.408910000000     0.0382417  
H492     H      0.496640000000     0.214150000000     0.371150000000     0.0405264  
H493     H      0.554660000000     0.246330000000     0.370840000000     0.0493621  
H494     H      0.053470000000     0.316950000000     0.423140000000     0.0973629  
H495     H      0.568110000000     0.277960000000     0.421780000000     0.0871014  
H496     H      0.553770000000     0.254330000000     0.130830000000     0.0395882  
H497     H      0.531090000000     0.299550000000     0.100560000000     0.0423985  
H498     H      0.515060000000     0.205310000000     0.131170000000     0.0206681  
H499     H      0.970580000000     0.215760000000     0.095780000000     0.0535681  
H500     H      0.544300000000     0.287550000000     0.156810000000     0.0385812  
H501     H      0.995620000000     0.300040000000     0.125440000000     0.0415996  
H502     H      0.956000000000     0.247850000000     0.120200000000     0.0465082  
H503     H      0.486140000000     0.190020000000     0.177990000000     0.0911384  
H504     H      0.954110000000     0.215030000000     0.168130000000     0.0974082  
H505     H      0.618620000000     0.032370000000     0.257610000000     0.0392161  
H506     H      0.657530000000     0.048050000000     0.216800000000     0.0440571  
H507     H      0.613040000000     0.462750000000     0.259010000000     0.0228513  
H508     H      0.655810000000     0.445030000000     0.225520000000     0.0554391  
H509     H      0.597950000000     0.049610000000     0.224140000000     0.0311685  
H510     H      0.636330000000     0.025090000000     0.187280000000     0.0397783  
H511     H      0.638510000000     0.462930000000     0.190750000000     0.0500412  
H512     H      0.579160000000     0.429590000000     0.234450000000     0.0831115  
H513     H      0.571250000000     0.449750000000     0.203740000000     0.101061   
H514     H      0.875280000000     0.458370000000     0.244130000000     0.0404777  
H515     H      0.906000000000     0.458820000000     0.293730000000     0.0362035  
H516     H      0.881220000000     0.516630000000     0.218490000000     0.0246864  
H517     H      0.911130000000     0.053030000000     0.253640000000     0.047191   
H518     H      0.847230000000     0.454460000000     0.276530000000     0.0411595  
H519     H      0.879700000000     0.989090000000     0.310410000000     0.0405157  
H520     H      0.882070000000     0.046400000000     0.284850000000     0.0457655  
H521     H      0.836200000000     0.050870000000     0.210150000000     0.0918976  
H522     H      0.839140000000     0.066520000000     0.248640000000     0.0968148  
H523     H      0.993100000000     0.381520000000     0.195850000000     0.0383543  
H524     H      0.959120000000     0.346260000000     0.228050000000     0.0423023  
H525     H      0.549420000000     0.381970000000     0.219180000000     0.0212708  
H526     H      0.554860000000     0.351000000000     0.267980000000     0.0570427  
H527     H      0.961940000000     0.405330000000     0.214500000000     0.0365977  
H528     H      0.963640000000     0.371820000000     0.262240000000     0.0419299  
H529     H      0.524700000000     0.375210000000     0.287030000000     0.0521149  
H530     H      0.575580000000     0.425200000000     0.240090000000     0.0796917  
H531     H      0.559140000000     0.427580000000     0.274070000000     0.107265   
H532     H      0.963880000000     0.124480000000     0.276020000000     0.0382329  
H533     H      0.969890000000     0.155400000000     0.226880000000     0.0399465  
H534     H      0.518620000000     0.122250000000     0.307740000000     0.0205759  
H535     H      0.558660000000     0.154790000000     0.280110000000     0.0519051  
H536     H      0.959330000000     0.098640000000     0.242180000000     0.0377723  
H537     H      0.001060000000     0.128790000000     0.213420000000     0.0407819  
H538     H      0.557030000000     0.129270000000     0.245560000000     0.0478977  
H539     H      0.549980000000     0.076120000000     0.314690000000     0.0976699  
H540     H      0.565630000000     0.077530000000     0.276460000000     0.0893613  
H541     H      0.882620000000     0.258430000000     0.546210000000     0.040207   
H542     H      0.907820000000     0.310440000000     0.534840000000     0.0378979  
H543     H      0.888240000000     0.223390000000     0.495720000000     0.0273315  
H544     H      0.912070000000     0.252780000000     0.950570000000     0.0471264  
H545     H      0.851620000000     0.288780000000     0.546730000000     0.0376636  
H546     H      0.878420000000     0.318680000000     0.004150000000     0.0379788  
H547     H      0.880220000000     0.282230000000     0.953070000000     0.0470813  
H548     H      0.839390000000     0.205470000000     0.968930000000     0.0934841  
H549     H      0.843430000000     0.236800000000     0.941730000000     0.096435   
H550     H      0.620420000000     0.239680000000     0.553620000000     0.0378346  
H551     H      0.659470000000     0.282020000000     0.545370000000     0.0433157  
H552     H      0.621990000000     0.200490000000     0.005150000000     0.0174201  
H553     H      0.659640000000     0.219350000000     0.964460000000     0.0534217  
H554     H      0.598870000000     0.276790000000     0.549430000000     0.0382823  
H555     H      0.638060000000     0.296520000000     0.511280000000     0.040567   
H556     H      0.637290000000     0.256130000000     0.959550000000     0.0489307  
H557     H      0.578370000000     0.191090000000     0.971190000000     0.0992426  
H558     H      0.583830000000     0.226610000000     0.950360000000     0.0885037  
H559     H      0.714390000000     0.374250000000     0.997990000000     0.0400098  
H560     H      0.725320000000     0.406680000000     0.951600000000     0.0399775  
H561     H      0.767960000000     0.379180000000     0.536420000000     0.0209791  
H562     H      0.811060000000     0.409060000000     0.509330000000     0.0538532  
H563     H      0.718170000000     0.347540000000     0.964820000000     0.0397229  
H564     H      0.758430000000     0.381350000000     0.940260000000     0.0380012  
H565     H      0.810170000000     0.381450000000     0.476280000000     0.0485597  
H566     H      0.800750000000     0.336350000000     0.550790000000     0.0969468  
H567     H      0.817450000000     0.332220000000     0.513140000000     0.0895759  
H568     H      0.749540000000     0.126550000000     0.956650000000     0.0402046  
H569     H      0.795950000000     0.160430000000     0.969370000000     0.0375241  
H570     H      0.709920000000     0.122490000000     0.007450000000     0.0203549  
H571     H      0.731980000000     0.155900000000     0.549680000000     0.0523962  
H572     H      0.785600000000     0.102730000000     0.957430000000     0.0413922  
H573     H      0.807050000000     0.134380000000     0.501500000000     0.0392284  
H574     H      0.768480000000     0.132280000000     0.551420000000     0.0487955  
H575     H      0.700670000000     0.077510000000     0.038370000000     0.0975584  
H576     H      0.739140000000     0.077580000000     0.555010000000     0.0922213  
H577     H      0.758630000000     0.048920000000     0.871870000000     0.0373391  
H578     H      0.716580000000     0.042420000000     0.833310000000     0.0428526  
H579     H      0.794170000000     0.992500000000     0.867340000000     0.022293   
H580     H      0.765750000000     0.451570000000     0.835720000000     0.0545969  
H581     H      0.721970000000     0.045570000000     0.894230000000     0.0381252  
H582     H      0.697910000000     0.510880000000     0.855610000000     0.0396261  
H583     H      0.730080000000     0.455790000000     0.860010000000     0.0496558  
H584     H      0.803080000000     0.458290000000     0.910050000000     0.0989186  
H585     H      0.763450000000     0.444610000000     0.911030000000     0.0904988  
H586     H      0.717030000000     0.998180000000     0.625710000000     0.0380706  
H587     H      0.728030000000     0.461310000000     0.583260000000     0.0427822  
H588     H      0.764920000000     0.044000000000     0.623140000000     0.0200124  
H589     H      0.806050000000     0.029150000000     0.584090000000     0.0530549  
H590     H      0.728280000000     0.460900000000     0.643600000000     0.0410662  
H591     H      0.765040000000     0.448400000000     0.601300000000     0.0392124  
H592     H      0.813170000000     0.491340000000     0.603730000000     0.0503727  
H593     H      0.801550000000     0.054980000000     0.662740000000     0.0931941  
H594     H      0.821340000000     0.518400000000     0.659580000000     0.0881071  
H595     H      0.962350000000     0.277260000000     0.885860000000     0.0372972  
H596     H      0.964580000000     0.232860000000     0.849330000000     0.0429527  
H597     H      0.017350000000     0.309270000000     0.881450000000     0.0212921  
H598     H      0.555780000000     0.281930000000     0.846590000000     0.0540419  
H599     H      0.962140000000     0.241140000000     0.908910000000     0.0384227  
H600     H      0.496640000000     0.214150000000     0.871150000000     0.0406715  
H601     H      0.554660000000     0.246330000000     0.870840000000     0.049451   
H602     H      0.053470000000     0.316950000000     0.923140000000     0.0979111  
H603     H      0.568110000000     0.277960000000     0.921780000000     0.0874916  
H604     H      0.553770000000     0.254330000000     0.630830000000     0.0396243  
H605     H      0.531090000000     0.299550000000     0.600560000000     0.0425062  
H606     H      0.515060000000     0.205310000000     0.631170000000     0.0207623  
H607     H      0.970580000000     0.215760000000     0.595780000000     0.0538254  
H608     H      0.544300000000     0.287550000000     0.656810000000     0.0386155  
H609     H      0.995620000000     0.300040000000     0.625440000000     0.0416823  
H610     H      0.956000000000     0.247850000000     0.620200000000     0.0466106  
H611     H      0.486140000000     0.190020000000     0.677990000000     0.0911708  
H612     H      0.954110000000     0.215030000000     0.668130000000     0.0974427  
H613     H      0.618620000000     0.032370000000     0.757610000000     0.0392396  
H614     H      0.657530000000     0.048050000000     0.716800000000     0.0440867  
H615     H      0.613040000000     0.462750000000     0.759010000000     0.0228775  
H616     H      0.655810000000     0.445030000000     0.725520000000     0.0554688  
H617     H      0.597950000000     0.049610000000     0.724140000000     0.0312074  
H618     H      0.636330000000     0.025090000000     0.687280000000     0.0398766  
H619     H      0.638510000000     0.462930000000     0.690750000000     0.0501377  
H620     H      0.579160000000     0.429590000000     0.734450000000     0.0831171  
H621     H      0.571250000000     0.449750000000     0.703740000000     0.101134   
H622     H      0.875280000000     0.458370000000     0.744130000000     0.0404995  
H623     H      0.906000000000     0.458820000000     0.793730000000     0.0362829  
H624     H      0.881220000000     0.516630000000     0.718490000000     0.0247319  
H625     H      0.911130000000     0.053030000000     0.753640000000     0.0472229  
H626     H      0.847230000000     0.454460000000     0.776530000000     0.0411838  
H627     H      0.879700000000     0.989090000000     0.810410000000     0.0406177  
H628     H      0.882070000000     0.046400000000     0.784850000000     0.0458161  
H629     H      0.836200000000     0.050870000000     0.710150000000     0.0919209  
H630     H      0.839140000000     0.066520000000     0.748640000000     0.0968265  
H631     H      0.993100000000     0.381520000000     0.695840000000     0.0384057  
H632     H      0.959120000000     0.346260000000     0.728050000000     0.0423244  
H633     H      0.549420000000     0.381970000000     0.719180000000     0.0213036  
H634     H      0.554860000000     0.351000000000     0.767980000000     0.0570729  
H635     H      0.961940000000     0.405330000000     0.714500000000     0.0366382  
H636     H      0.963640000000     0.371820000000     0.762240000000     0.0419695  
H637     H      0.524700000000     0.375210000000     0.787030000000     0.0521859  
H638     H      0.575580000000     0.425200000000     0.740090000000     0.0796941  
H639     H      0.559140000000     0.427580000000     0.774070000000     0.107315   
H640     H      0.963880000000     0.124480000000     0.776020000000     0.0382774  
H641     H      0.969890000000     0.155400000000     0.726880000000     0.0399732  
H642     H      0.518620000000     0.122250000000     0.807740000000     0.0206712  
H643     H      0.558660000000     0.154790000000     0.780110000000     0.0519405  
H644     H      0.959330000000     0.098640000000     0.742180000000     0.0378064  
H645     H      0.001060000000     0.128790000000     0.713420000000     0.0408383  
H646     H      0.557030000000     0.129270000000     0.745560000000     0.0479198  
H647     H      0.549980000000     0.076120000000     0.814690000000     0.0978086  
H648     H      0.565630000000     0.077530000000     0.776460000000     0.0893834  
H649     H      0.882620000000     0.758430000000     0.046210000000     0.0395215  
H650     H      0.907820000000     0.810440000000     0.034840000000     0.0379873  
H651     H      0.888240000000     0.723390000000     0.995720000000     0.0280107  
H652     H      0.912070000000     0.752780000000     0.450570000000     0.0469701  
H653     H      0.851620000000     0.788780000000     0.046730000000     0.0376266  
H654     H      0.878420000000     0.818680000000     0.504150000000     0.0384619  
H655     H      0.880220000000     0.782230000000     0.453070000000     0.0463517  
H656     H      0.839390000000     0.705470000000     0.468930000000     0.09266    
H657     H      0.843430000000     0.736800000000     0.441730000000     0.0962698  
H658     H      0.620420000000     0.739680000000     0.053620000000     0.0376896  
H659     H      0.659470000000     0.782020000000     0.045370000000     0.043181   
H660     H      0.621990000000     0.700490000000     0.505150000000     0.0210916  
H661     H      0.659640000000     0.719350000000     0.464460000000     0.0529125  
H662     H      0.598870000000     0.776790000000     0.049430000000     0.038197   
H663     H      0.638060000000     0.796520000000     0.011280000000     0.039624   
H664     H      0.637290000000     0.756130000000     0.459550000000     0.0484901  
H665     H      0.578370000000     0.691090000000     0.471190000000     0.097885   
H666     H      0.583830000000     0.726610000000     0.450360000000     0.0878786  
H667     H      0.714390000000     0.874250000000     0.497990000000     0.0386423  
H668     H      0.725320000000     0.906680000000     0.451600000000     0.039986   
H669     H      0.767960000000     0.879180000000     0.036410000000     0.0216695  
H670     H      0.811060000000     0.909060000000     0.009330000000     0.0495968  
H671     H      0.718170000000     0.847540000000     0.464820000000     0.0389988  
H672     H      0.758430000000     0.881350000000     0.440260000000     0.0380848  
H673     H      0.810170000000     0.881450000000     0.976280000000     0.04775    
H674     H      0.800750000000     0.836350000000     0.050790000000     0.0967913  
H675     H      0.817450000000     0.832220000000     0.013140000000     0.0887186  
H676     H      0.749540000000     0.626550000000     0.456650000000     0.0393408  
H677     H      0.795950000000     0.660440000000     0.469370000000     0.038538   
H678     H      0.709920000000     0.622490000000     0.507450000000     0.0209645  
H679     H      0.731980000000     0.655900000000     0.049680000000     0.0522269  
H680     H      0.785600000000     0.602730000000     0.457430000000     0.0406927  
H681     H      0.807050000000     0.634380000000     0.001500000000     0.0350567  
H682     H      0.768480000000     0.632280000000     0.051420000000     0.0483606  
H683     H      0.700670000000     0.577500000000     0.538370000000     0.0985912  
H684     H      0.739140000000     0.577580000000     0.055010000000     0.0916725  
H685     H      0.758630000000     0.548920000000     0.371870000000     0.0374475  
H686     H      0.716580000000     0.542420000000     0.333310000000     0.0427695  
H687     H      0.794170000000     0.492500000000     0.367340000000     0.0220545  
H688     H      0.765750000000     0.951570000000     0.335720000000     0.0545966  
H689     H      0.721970000000     0.545570000000     0.394230000000     0.0380418  
H690     H      0.697910000000     0.010880000000     0.355610000000     0.0393659  
H691     H      0.730080000000     0.955790000000     0.360010000000     0.0497977  
H692     H      0.803080000000     0.958290000000     0.410050000000     0.0990042  
H693     H      0.763450000000     0.944610000000     0.411030000000     0.0906653  
H694     H      0.717030000000     0.498180000000     0.125710000000     0.0376211  
H695     H      0.728030000000     0.961310000000     0.083260000000     0.0424432  
H696     H      0.764920000000     0.544000000000     0.123140000000     0.0200561  
H697     H      0.806050000000     0.529150000000     0.084090000000     0.0524977  
H698     H      0.728280000000     0.960900000000     0.143600000000     0.0410166  
H699     H      0.765040000000     0.948400000000     0.101300000000     0.039047   
H700     H      0.813170000000     0.991340000000     0.103730000000     0.0512551  
H701     H      0.801550000000     0.554980000000     0.162740000000     0.0932007  
H702     H      0.821340000000     0.018400000000     0.159580000000     0.0877358  
H703     H      0.962350000000     0.777260000000     0.385860000000     0.0371609  
H704     H      0.964580000000     0.732860000000     0.349330000000     0.0428986  
H705     H      0.017350000000     0.809270000000     0.381450000000     0.0211642  
H706     H      0.555780000000     0.781930000000     0.346590000000     0.0539955  
H707     H      0.962140000000     0.741140000000     0.408910000000     0.0382567  
H708     H      0.496640000000     0.714150000000     0.371150000000     0.0405439  
H709     H      0.554660000000     0.746330000000     0.370840000000     0.0493833  
H710     H      0.053470000000     0.816950000000     0.423140000000     0.0974052  
H711     H      0.568110000000     0.777960000000     0.421780000000     0.0871091  
H712     H      0.553770000000     0.754330000000     0.130830000000     0.0395939  
H713     H      0.531090000000     0.799550000000     0.100560000000     0.0424281  
H714     H      0.515060000000     0.705310000000     0.131170000000     0.0206817  
H715     H      0.970580000000     0.715760000000     0.095780000000     0.0535821  
H716     H      0.544300000000     0.787550000000     0.156810000000     0.0385925  
H717     H      0.995620000000     0.800040000000     0.125440000000     0.0416272  
H718     H      0.956000000000     0.747850000000     0.120200000000     0.0465158  
H719     H      0.486140000000     0.690020000000     0.177990000000     0.0911451  
H720     H      0.954110000000     0.715030000000     0.168130000000     0.0974116  
H721     H      0.618620000000     0.532370000000     0.257610000000     0.0393434  
H722     H      0.657530000000     0.548050000000     0.216800000000     0.0440274  
H723     H      0.613040000000     0.962750000000     0.259010000000     0.022997   
H724     H      0.655810000000     0.945030000000     0.225520000000     0.0554335  
H725     H      0.597950000000     0.549610000000     0.224140000000     0.0310979  
H726     H      0.636330000000     0.525090000000     0.187280000000     0.0399581  
H727     H      0.638510000000     0.962930000000     0.190750000000     0.0501982  
H728     H      0.579160000000     0.929600000000     0.234450000000     0.0830818  
H729     H      0.571250000000     0.949750000000     0.203740000000     0.101294   
H730     H      0.875280000000     0.958370000000     0.244130000000     0.0405635  
H731     H      0.906000000000     0.958810000000     0.293730000000     0.0362176  
H732     H      0.881220000000     0.016630000000     0.218490000000     0.0244785  
H733     H      0.911130000000     0.553030000000     0.253640000000     0.0471815  
H734     H      0.847230000000     0.954460000000     0.276530000000     0.0410498  
H735     H      0.879700000000     0.489090000000     0.310410000000     0.0403061  
H736     H      0.882070000000     0.546400000000     0.284850000000     0.0459169  
H737     H      0.836200000000     0.550870000000     0.210150000000     0.0919641  
H738     H      0.839140000000     0.566520000000     0.248640000000     0.0968429  
H739     H      0.993100000000     0.881520000000     0.195850000000     0.0384141  
H740     H      0.959120000000     0.846260000000     0.228050000000     0.0423164  
H741     H      0.549420000000     0.881970000000     0.219180000000     0.0212929  
H742     H      0.554860000000     0.851000000000     0.267980000000     0.0570517  
H743     H      0.961940000000     0.905330000000     0.214500000000     0.0366989  
H744     H      0.963640000000     0.871820000000     0.262240000000     0.041956   
H745     H      0.524700000000     0.875210000000     0.287030000000     0.0521409  
H746     H      0.575580000000     0.925200000000     0.240090000000     0.0797899  
H747     H      0.559140000000     0.927580000000     0.274070000000     0.107304   
H748     H      0.963880000000     0.624470000000     0.276020000000     0.0382657  
H749     H      0.969890000000     0.655400000000     0.226880000000     0.039953   
H750     H      0.518620000000     0.622250000000     0.307740000000     0.0206174  
H751     H      0.558660000000     0.654790000000     0.280110000000     0.0519201  
H752     H      0.959330000000     0.598640000000     0.242180000000     0.0377975  
H753     H      0.001060000000     0.628790000000     0.213420000000     0.0408001  
H754     H      0.557030000000     0.629270000000     0.245560000000     0.0479131  
H755     H      0.549980000000     0.576110000000     0.314690000000     0.0977722  
H756     H      0.565630000000     0.577530000000     0.276460000000     0.0894245  
H757     H      0.882620000000     0.758430000000     0.546210000000     0.040213   
H758     H      0.907820000000     0.810440000000     0.534840000000     0.0379337  
H759     H      0.888240000000     0.723390000000     0.495720000000     0.0273434  
H760     H      0.912070000000     0.752780000000     0.950570000000     0.0471361  
H761     H      0.851620000000     0.788780000000     0.546730000000     0.0376731  
H762     H      0.878420000000     0.818680000000     0.004150000000     0.0380094  
H763     H      0.880220000000     0.782230000000     0.953070000000     0.0470951  
H764     H      0.839390000000     0.705470000000     0.968930000000     0.0934959  
H765     H      0.843430000000     0.736800000000     0.941730000000     0.09644    
H766     H      0.620420000000     0.739680000000     0.553620000000     0.0378495  
H767     H      0.659470000000     0.782020000000     0.545370000000     0.043305   
H768     H      0.621990000000     0.700490000000     0.005150000000     0.0174237  
H769     H      0.659640000000     0.719350000000     0.964460000000     0.0534399  
H770     H      0.598870000000     0.776790000000     0.549430000000     0.0383069  
H771     H      0.638060000000     0.796520000000     0.511280000000     0.0405623  
H772     H      0.637290000000     0.756130000000     0.959550000000     0.0489392  
H773     H      0.578370000000     0.691090000000     0.971190000000     0.0992781  
H774     H      0.583830000000     0.726610000000     0.950360000000     0.0885123  
H775     H      0.714390000000     0.874250000000     0.997990000000     0.0400663  
H776     H      0.725320000000     0.906680000000     0.951600000000     0.040066   
H777     H      0.767960000000     0.879180000000     0.536420000000     0.0210083  
H778     H      0.811060000000     0.909060000000     0.509330000000     0.053949   
H779     H      0.718170000000     0.847540000000     0.964820000000     0.0397522  
H780     H      0.758430000000     0.881350000000     0.940260000000     0.0380207  
H781     H      0.810170000000     0.881450000000     0.476280000000     0.0486053  
H782     H      0.800750000000     0.836350000000     0.550790000000     0.0969633  
H783     H      0.817450000000     0.832220000000     0.513140000000     0.0895855  
H784     H      0.749540000000     0.626550000000     0.956650000000     0.0402229  
H785     H      0.795950000000     0.660440000000     0.969370000000     0.0375322  
H786     H      0.709920000000     0.622490000000     0.007450000000     0.0203694  
H787     H      0.731980000000     0.655900000000     0.549680000000     0.0524083  
H788     H      0.785600000000     0.602730000000     0.957430000000     0.0414358  
H789     H      0.807050000000     0.634380000000     0.501500000000     0.0392539  
H790     H      0.768480000000     0.632280000000     0.551420000000     0.0488118  
H791     H      0.700670000000     0.577500000000     0.038370000000     0.0976318  
H792     H      0.739140000000     0.577580000000     0.555010000000     0.092322   
H793     H      0.758630000000     0.548920000000     0.871870000000     0.0374998  
H794     H      0.716580000000     0.542420000000     0.833310000000     0.0428143  
H795     H      0.794170000000     0.492500000000     0.867340000000     0.0221183  
H796     H      0.765750000000     0.951570000000     0.835720000000     0.0546303  
H797     H      0.721970000000     0.545570000000     0.894230000000     0.0381916  
H798     H      0.697910000000     0.010880000000     0.855610000000     0.0394772  
H799     H      0.730080000000     0.955790000000     0.860010000000     0.0498694  
H800     H      0.803080000000     0.958290000000     0.910050000000     0.0991762  
H801     H      0.763450000000     0.944610000000     0.911030000000     0.0906868  
H802     H      0.717030000000     0.498180000000     0.625710000000     0.037754   
H803     H      0.728030000000     0.961310000000     0.583260000000     0.0428596  
H804     H      0.764920000000     0.544000000000     0.623140000000     0.020131   
H805     H      0.806050000000     0.529150000000     0.584090000000     0.0528461  
H806     H      0.728280000000     0.960900000000     0.643600000000     0.0410934  
H807     H      0.765040000000     0.948400000000     0.601300000000     0.0392721  
H808     H      0.813170000000     0.991340000000     0.603730000000     0.0514916  
H809     H      0.801550000000     0.554980000000     0.662740000000     0.0932397  
H810     H      0.821340000000     0.018400000000     0.659580000000     0.0877855  
H811     H      0.962350000000     0.777260000000     0.885860000000     0.03731    
H812     H      0.964580000000     0.732860000000     0.849330000000     0.042955   
H813     H      0.017350000000     0.809270000000     0.881450000000     0.0213099  
H814     H      0.555780000000     0.781930000000     0.846590000000     0.054051   
H815     H      0.962140000000     0.741140000000     0.908910000000     0.0384384  
H816     H      0.496640000000     0.714150000000     0.871150000000     0.0406897  
H817     H      0.554660000000     0.746330000000     0.870840000000     0.0494727  
H818     H      0.053470000000     0.816950000000     0.923140000000     0.0979547  
H819     H      0.568110000000     0.777960000000     0.921780000000     0.0875005  
H820     H      0.553770000000     0.754330000000     0.630830000000     0.0396301  
H821     H      0.531090000000     0.799550000000     0.600560000000     0.0425363  
H822     H      0.515060000000     0.705310000000     0.631170000000     0.0207766  
H823     H      0.970580000000     0.715760000000     0.595780000000     0.0538408  
H824     H      0.544300000000     0.787550000000     0.656810000000     0.0386269  
H825     H      0.995620000000     0.800040000000     0.625440000000     0.0417103  
H826     H      0.956000000000     0.747850000000     0.620200000000     0.0466187  
H827     H      0.486140000000     0.690020000000     0.677990000000     0.0911778  
H828     H      0.954110000000     0.715030000000     0.668130000000     0.0974463  
H829     H      0.618620000000     0.532370000000     0.757610000000     0.0393681  
H830     H      0.657530000000     0.548050000000     0.716800000000     0.044057   
H831     H      0.613040000000     0.962750000000     0.759010000000     0.0230244  
H832     H      0.655810000000     0.945030000000     0.725520000000     0.055463   
H833     H      0.597950000000     0.549610000000     0.724140000000     0.0311356  
H834     H      0.636330000000     0.525090000000     0.687280000000     0.0400601  
H835     H      0.638510000000     0.962930000000     0.690750000000     0.0502965  
H836     H      0.579160000000     0.929600000000     0.734450000000     0.0830876  
H837     H      0.571250000000     0.949750000000     0.703740000000     0.10137    
H838     H      0.875280000000     0.958370000000     0.744130000000     0.0405862  
H839     H      0.906000000000     0.958810000000     0.793730000000     0.0362971  
H840     H      0.881220000000     0.016630000000     0.718490000000     0.0245205  
H841     H      0.911130000000     0.553030000000     0.753640000000     0.0472133  
H842     H      0.847230000000     0.954460000000     0.776530000000     0.0410728  
H843     H      0.879700000000     0.489090000000     0.810410000000     0.040407   
H844     H      0.882070000000     0.546400000000     0.784850000000     0.0459692  
H845     H      0.836200000000     0.550870000000     0.710150000000     0.0919885  
H846     H      0.839140000000     0.566520000000     0.748640000000     0.096855   
H847     H      0.993100000000     0.881520000000     0.695840000000     0.0384662  
H848     H      0.959120000000     0.846260000000     0.728050000000     0.0423387  
H849     H      0.549420000000     0.881970000000     0.719180000000     0.0213259  
H850     H      0.554860000000     0.851000000000     0.767980000000     0.057082   
H851     H      0.961940000000     0.905330000000     0.714500000000     0.0367406  
H852     H      0.963640000000     0.871820000000     0.762240000000     0.0419958  
H853     H      0.524700000000     0.875210000000     0.787030000000     0.052212   
H854     H      0.575580000000     0.925200000000     0.740090000000     0.0797925  
H855     H      0.559140000000     0.927580000000     0.774070000000     0.107354   
H856     H      0.963880000000     0.624470000000     0.776020000000     0.0383106  
H857     H      0.969890000000     0.655400000000     0.726880000000     0.0399799  
H858     H      0.518620000000     0.622250000000     0.807740000000     0.0207134  
H859     H      0.558660000000     0.654790000000     0.780110000000     0.0519558  
H860     H      0.959330000000     0.598640000000     0.742180000000     0.0378321  
H861     H      0.001060000000     0.628790000000     0.713420000000     0.040857   
H862     H      0.557030000000     0.629270000000     0.745560000000     0.0479356  
H863     H      0.549980000000     0.576110000000     0.814690000000     0.097913   
H864     H      0.565630000000     0.577530000000     0.776460000000     0.0894475  
N1       N      0.351690000000     0.257150000000     0.006070000000    -0.185905   
N2       N      0.412210000000     0.282700000000     0.992110000000    -0.167269   
N3       N      0.354960000000     0.222150000000     0.458420000000    -0.198074   
N4       N      0.095880000000     0.243970000000     0.009940000000    -0.186428   
N5       N      0.162560000000     0.252950000000     0.003020000000    -0.168225   
N6       N      0.094960000000     0.208270000000     0.463340000000    -0.198135   
N7       N      0.257550000000     0.347390000000     0.498340000000    -0.184483   
N8       N      0.268610000000     0.410560000000     0.479860000000    -0.168966   
N9       N      0.307720000000     0.348040000000     0.029910000000    -0.198573   
N10      N      0.252630000000     0.096400000000     0.496810000000    -0.183431   
N11      N      0.264540000000     0.160890000000     0.510350000000    -0.168746   
N12      N      0.220270000000     0.091460000000     0.045770000000    -0.197869   
N13      N      0.253940000000     0.005000000000     0.396130000000    -0.183966   
N14      N      0.239990000000     0.996270000000     0.331510000000    -0.166884   
N15      N      0.282340000000     0.453150000000     0.396820000000    -0.19962    
N16      N      0.263150000000     0.999200000000     0.147020000000    -0.183191   
N17      N      0.268040000000     0.994260000000     0.080570000000    -0.167495   
N18      N      0.308960000000     0.036590000000     0.147520000000    -0.198721   
N19      N      0.506210000000     0.268820000000     0.409950000000    -0.184537   
N20      N      0.511630000000     0.254650000000     0.345090000000    -0.167291   
N21      N      0.058380000000     0.297060000000     0.408800000000    -0.198285   
N22      N      0.512230000000     0.247060000000     0.159290000000    -0.184043   
N23      N      0.998510000000     0.259420000000     0.095330000000    -0.167487   
N24      N      0.473750000000     0.201730000000     0.159700000000    -0.198859   
N25      N      0.092990000000     0.498870000000     0.229600000000    -0.185037   
N26      N      0.160120000000     0.496410000000     0.221480000000    -0.167285   
N27      N      0.088800000000     0.441060000000     0.219450000000    -0.219929   
N28      N      0.347220000000     0.500140000000     0.252320000000    -0.182514   
N29      N      0.410900000000     0.506130000000     0.274560000000    -0.168547   
N30      N      0.351050000000     0.055280000000     0.229740000000    -0.197813   
N31      N      0.509780000000     0.410400000000     0.233760000000    -0.185643   
N32      N      0.005900000000     0.345690000000     0.250640000000    -0.166327   
N33      N      0.066280000000     0.413310000000     0.254980000000    -0.220605   
N34      N      0.003870000000     0.093960000000     0.268480000000    -0.183976   
N35      N      0.015470000000     0.157850000000     0.252000000000    -0.168213   
N36      N      0.056570000000     0.090780000000     0.295610000000    -0.19836    
N37      N      0.351690000000     0.257150000000     0.506070000000    -0.184627   
N38      N      0.412210000000     0.282700000000     0.492110000000    -0.168707   
N39      N      0.354960000000     0.222150000000     0.958420000000    -0.198255   
N40      N      0.095880000000     0.243970000000     0.509940000000    -0.18437    
N41      N      0.162560000000     0.252950000000     0.503020000000    -0.167327   
N42      N      0.094960000000     0.208270000000     0.963340000000    -0.19876    
N43      N      0.257550000000     0.347390000000     0.998340000000    -0.179732   
N44      N      0.268610000000     0.410560000000     0.979860000000    -0.169796   
N45      N      0.307720000000     0.348040000000     0.529910000000    -0.199328   
N46      N      0.252630000000     0.096400000000     0.996810000000    -0.181233   
N47      N      0.264540000000     0.160890000000     0.010350000000    -0.170551   
N48      N      0.220270000000     0.091460000000     0.545770000000    -0.19815    
N49      N      0.253940000000     0.005000000000     0.896130000000    -0.183987   
N50      N      0.239990000000     0.996270000000     0.831510000000    -0.16687    
N51      N      0.282340000000     0.453150000000     0.896820000000    -0.199613   
N52      N      0.263150000000     0.999200000000     0.647020000000    -0.183189   
N53      N      0.268040000000     0.994260000000     0.580570000000    -0.167221   
N54      N      0.308960000000     0.036590000000     0.647520000000    -0.198678   
N55      N      0.506210000000     0.268820000000     0.909950000000    -0.184304   
N56      N      0.511630000000     0.254650000000     0.845090000000    -0.167276   
N57      N      0.058380000000     0.297060000000     0.908800000000    -0.198303   
N58      N      0.512230000000     0.247060000000     0.659290000000    -0.184042   
N59      N      0.998510000000     0.259420000000     0.595340000000    -0.167425   
N60      N      0.473750000000     0.201730000000     0.659700000000    -0.198815   
N61      N      0.092990000000     0.498870000000     0.729600000000    -0.185015   
N62      N      0.160120000000     0.496410000000     0.721480000000    -0.16727    
N63      N      0.088800000000     0.441060000000     0.719450000000    -0.219918   
N64      N      0.347220000000     0.500140000000     0.752320000000    -0.182511   
N65      N      0.410900000000     0.506130000000     0.774560000000    -0.168515   
N66      N      0.351050000000     0.055280000000     0.729740000000    -0.197802   
N67      N      0.509780000000     0.410400000000     0.733760000000    -0.185629   
N68      N      0.005900000000     0.345690000000     0.750640000000    -0.166316   
N69      N      0.066280000000     0.413310000000     0.754980000000    -0.220599   
N70      N      0.003870000000     0.093960000000     0.768480000000    -0.183956   
N71      N      0.015470000000     0.157850000000     0.752000000000    -0.168206   
N72      N      0.056570000000     0.090780000000     0.795610000000    -0.198345   
N73      N      0.351690000000     0.757150000000     0.006070000000    -0.185909   
N74      N      0.412210000000     0.782700000000     0.992110000000    -0.167255   
N75      N      0.354960000000     0.722150000000     0.458420000000    -0.198068   
N76      N      0.095880000000     0.743970000000     0.009940000000    -0.186427   
N77      N      0.162560000000     0.752950000000     0.003020000000    -0.168224   
N78      N      0.094960000000     0.708270000000     0.463340000000    -0.198131   
N79      N      0.257550000000     0.847380000000     0.498340000000    -0.184556   
N80      N      0.268610000000     0.910560000000     0.479860000000    -0.168896   
N81      N      0.307720000000     0.848040000000     0.029910000000    -0.198556   
N82      N      0.252630000000     0.596400000000     0.496810000000    -0.183377   
N83      N      0.264540000000     0.660890000000     0.510350000000    -0.168748   
N84      N      0.220270000000     0.591460000000     0.045770000000    -0.197848   
N85      N      0.253940000000     0.505000000000     0.396130000000    -0.18344    
N86      N      0.239990000000     0.496270000000     0.331510000000    -0.167273   
N87      N      0.282340000000     0.953150000000     0.396820000000    -0.199703   
N88      N      0.263150000000     0.499200000000     0.147020000000    -0.183475   
N89      N      0.268040000000     0.494260000000     0.080570000000    -0.167993   
N90      N      0.308960000000     0.536590000000     0.147520000000    -0.198708   
N91      N      0.506210000000     0.768820000000     0.409950000000    -0.184531   
N92      N      0.511630000000     0.754640000000     0.345090000000    -0.167298   
N93      N      0.058380000000     0.797060000000     0.408800000000    -0.198282   
N94      N      0.512230000000     0.747060000000     0.159290000000    -0.184043   
N95      N      0.998510000000     0.759420000000     0.095330000000    -0.167481   
N96      N      0.473750000000     0.701730000000     0.159700000000    -0.198854   
N97      N      0.092990000000     0.998870000000     0.229600000000    -0.183846   
N98      N      0.160120000000     0.996410000000     0.221480000000    -0.166963   
N99      N      0.088800000000     0.941060000000     0.219450000000    -0.219928   
N100     N      0.347220000000     0.000140000000     0.252320000000    -0.183686   
N101     N      0.410900000000     0.006130000000     0.274560000000    -0.168838   
N102     N      0.351050000000     0.555280000000     0.229740000000    -0.197791   
N103     N      0.509780000000     0.910400000000     0.233760000000    -0.185605   
N104     N      0.005900000000     0.845700000000     0.250640000000    -0.166244   
N105     N      0.066280000000     0.913310000000     0.254980000000    -0.220618   
N106     N      0.003870000000     0.593960000000     0.268480000000    -0.183946   
N107     N      0.015470000000     0.657850000000     0.252000000000    -0.168211   
N108     N      0.056570000000     0.590780000000     0.295610000000    -0.198323   
N109     N      0.351690000000     0.757150000000     0.506070000000    -0.184627   
N110     N      0.412210000000     0.782700000000     0.492110000000    -0.168696   
N111     N      0.354960000000     0.722150000000     0.958420000000    -0.19825    
N112     N      0.095880000000     0.743970000000     0.509940000000    -0.184362   
N113     N      0.162560000000     0.752950000000     0.503020000000    -0.167323   
N114     N      0.094960000000     0.708270000000     0.963340000000    -0.198758   
N115     N      0.257550000000     0.847380000000     0.998340000000    -0.179792   
N116     N      0.268610000000     0.910560000000     0.979860000000    -0.169727   
N117     N      0.307720000000     0.848040000000     0.529910000000    -0.199312   
N118     N      0.252630000000     0.596400000000     0.996810000000    -0.181169   
N119     N      0.264540000000     0.660890000000     0.010350000000    -0.170562   
N120     N      0.220270000000     0.591460000000     0.545770000000    -0.19813    
N121     N      0.253940000000     0.505000000000     0.896130000000    -0.183455   
N122     N      0.239990000000     0.496270000000     0.831510000000    -0.167262   
N123     N      0.282340000000     0.953150000000     0.896820000000    -0.199696   
N124     N      0.263150000000     0.499200000000     0.647020000000    -0.183477   
N125     N      0.268040000000     0.494260000000     0.580570000000    -0.167725   
N126     N      0.308960000000     0.536590000000     0.647520000000    -0.198665   
N127     N      0.506210000000     0.768820000000     0.909950000000    -0.184298   
N128     N      0.511630000000     0.754640000000     0.845090000000    -0.167283   
N129     N      0.058380000000     0.797060000000     0.908800000000    -0.1983     
N130     N      0.512230000000     0.747060000000     0.659290000000    -0.184042   
N131     N      0.998510000000     0.759420000000     0.595340000000    -0.167419   
N132     N      0.473750000000     0.701730000000     0.659700000000    -0.198809   
N133     N      0.092990000000     0.998870000000     0.729600000000    -0.18381    
N134     N      0.160120000000     0.996410000000     0.721480000000    -0.166944   
N135     N      0.088800000000     0.941060000000     0.719450000000    -0.219917   
N136     N      0.347220000000     0.000140000000     0.752320000000    -0.183697   
N137     N      0.410900000000     0.006130000000     0.774560000000    -0.16881    
N138     N      0.351050000000     0.555280000000     0.729740000000    -0.19778    
N139     N      0.509780000000     0.910400000000     0.733760000000    -0.185591   
N140     N      0.005900000000     0.845700000000     0.750640000000    -0.166233   
N141     N      0.066280000000     0.913310000000     0.754980000000    -0.220612   
N142     N      0.003870000000     0.593960000000     0.768480000000    -0.183927   
N143     N      0.015470000000     0.657850000000     0.752000000000    -0.168203   
N144     N      0.056570000000     0.590780000000     0.795610000000    -0.198307   
N145     N      0.851690000000     0.257150000000     0.006070000000    -0.185905   
N146     N      0.912210000000     0.282700000000     0.992110000000    -0.167271   
N147     N      0.854960000000     0.222150000000     0.458420000000    -0.198073   
N148     N      0.595880000000     0.243970000000     0.009940000000    -0.186433   
N149     N      0.662560000000     0.252950000000     0.003020000000    -0.168225   
N150     N      0.594960000000     0.208270000000     0.463340000000    -0.198136   
N151     N      0.757550000000     0.347390000000     0.498340000000    -0.184483   
N152     N      0.768610000000     0.410560000000     0.479860000000    -0.168965   
N153     N      0.807720000000     0.348040000000     0.029910000000    -0.198573   
N154     N      0.752630000000     0.096400000000     0.496810000000    -0.183432   
N155     N      0.764540000000     0.160890000000     0.510350000000    -0.168742   
N156     N      0.720270000000     0.091460000000     0.045770000000    -0.197871   
N157     N      0.753940000000     0.005000000000     0.396130000000    -0.183966   
N158     N      0.739990000000     0.996270000000     0.331510000000    -0.166884   
N159     N      0.782340000000     0.453150000000     0.396820000000    -0.19962    
N160     N      0.763150000000     0.999200000000     0.147020000000    -0.183193   
N161     N      0.768040000000     0.994260000000     0.080570000000    -0.16749    
N162     N      0.808960000000     0.036590000000     0.147520000000    -0.19872    
N163     N      0.006210000000     0.268820000000     0.409950000000    -0.184542   
N164     N      0.011630000000     0.254650000000     0.345090000000    -0.167302   
N165     N      0.558380000000     0.297060000000     0.408800000000    -0.198285   
N166     N      0.012230000000     0.247060000000     0.159290000000    -0.184111   
N167     N      0.498510000000     0.259420000000     0.095330000000    -0.167503   
N168     N      0.973750000000     0.201730000000     0.159700000000    -0.198865   
N169     N      0.592990000000     0.498870000000     0.229600000000    -0.185051   
N170     N      0.660120000000     0.496410000000     0.221480000000    -0.167285   
N171     N      0.588800000000     0.441060000000     0.219450000000    -0.219944   
N172     N      0.847220000000     0.500140000000     0.252320000000    -0.182513   
N173     N      0.910900000000     0.506130000000     0.274560000000    -0.168612   
N174     N      0.851050000000     0.055280000000     0.229740000000    -0.197813   
N175     N      0.009780000000     0.410400000000     0.233760000000    -0.185651   
N176     N      0.505900000000     0.345690000000     0.250640000000    -0.166318   
N177     N      0.566280000000     0.413310000000     0.254980000000    -0.220608   
N178     N      0.503880000000     0.093960000000     0.268480000000    -0.183975   
N179     N      0.515470000000     0.157850000000     0.252000000000    -0.168201   
N180     N      0.556570000000     0.090780000000     0.295610000000    -0.198367   
N181     N      0.851690000000     0.257150000000     0.506070000000    -0.184627   
N182     N      0.912210000000     0.282700000000     0.492110000000    -0.168709   
N183     N      0.854960000000     0.222150000000     0.958420000000    -0.198254   
N184     N      0.595880000000     0.243970000000     0.509940000000    -0.184376   
N185     N      0.662560000000     0.252950000000     0.503020000000    -0.167327   
N186     N      0.594960000000     0.208270000000     0.963340000000    -0.198761   
N187     N      0.757550000000     0.347390000000     0.998340000000    -0.179732   
N188     N      0.768610000000     0.410560000000     0.979860000000    -0.169796   
N189     N      0.807720000000     0.348040000000     0.529910000000    -0.199328   
N190     N      0.752630000000     0.096400000000     0.996810000000    -0.181234   
N191     N      0.764540000000     0.160890000000     0.010350000000    -0.170547   
N192     N      0.720270000000     0.091460000000     0.545770000000    -0.198151   
N193     N      0.753940000000     0.005000000000     0.896130000000    -0.183987   
N194     N      0.739990000000     0.996270000000     0.831510000000    -0.16687    
N195     N      0.782340000000     0.453150000000     0.896820000000    -0.199613   
N196     N      0.763150000000     0.999200000000     0.647020000000    -0.183191   
N197     N      0.768040000000     0.994260000000     0.580570000000    -0.167216   
N198     N      0.808960000000     0.036590000000     0.647520000000    -0.198677   
N199     N      0.006210000000     0.268820000000     0.909950000000    -0.18431    
N200     N      0.011630000000     0.254650000000     0.845090000000    -0.167287   
N201     N      0.558380000000     0.297060000000     0.908800000000    -0.198303   
N202     N      0.012230000000     0.247060000000     0.659290000000    -0.18411    
N203     N      0.498510000000     0.259420000000     0.595340000000    -0.167441   
N204     N      0.973750000000     0.201730000000     0.659700000000    -0.19882    
N205     N      0.592990000000     0.498870000000     0.729600000000    -0.185029   
N206     N      0.660120000000     0.496410000000     0.721480000000    -0.167269   
N207     N      0.588800000000     0.441060000000     0.719450000000    -0.219933   
N208     N      0.847220000000     0.500140000000     0.752320000000    -0.18251    
N209     N      0.910900000000     0.506130000000     0.774560000000    -0.16858    
N210     N      0.851050000000     0.055280000000     0.729740000000    -0.197802   
N211     N      0.009780000000     0.410400000000     0.733760000000    -0.185637   
N212     N      0.505900000000     0.345690000000     0.750640000000    -0.166307   
N213     N      0.566280000000     0.413310000000     0.754980000000    -0.220602   
N214     N      0.503880000000     0.093960000000     0.768480000000    -0.183956   
N215     N      0.515470000000     0.157850000000     0.752000000000    -0.168194   
N216     N      0.556570000000     0.090780000000     0.795610000000    -0.198352   
N217     N      0.851690000000     0.757150000000     0.006070000000    -0.185909   
N218     N      0.912210000000     0.782700000000     0.992110000000    -0.167257   
N219     N      0.854960000000     0.722150000000     0.458420000000    -0.198067   
N220     N      0.595880000000     0.743970000000     0.009940000000    -0.186432   
N221     N      0.662560000000     0.752950000000     0.003020000000    -0.168224   
N222     N      0.594960000000     0.708270000000     0.463340000000    -0.198132   
N223     N      0.757550000000     0.847380000000     0.498340000000    -0.184556   
N224     N      0.768610000000     0.910560000000     0.479860000000    -0.168896   
N225     N      0.807720000000     0.848040000000     0.029910000000    -0.198555   
N226     N      0.752630000000     0.596400000000     0.496810000000    -0.183379   
N227     N      0.764540000000     0.660890000000     0.510350000000    -0.168743   
N228     N      0.720270000000     0.591460000000     0.045770000000    -0.197849   
N229     N      0.753940000000     0.505000000000     0.396130000000    -0.18344    
N230     N      0.739990000000     0.496270000000     0.331510000000    -0.167273   
N231     N      0.782340000000     0.953150000000     0.396820000000    -0.199703   
N232     N      0.763150000000     0.499200000000     0.147020000000    -0.183476   
N233     N      0.768040000000     0.494260000000     0.080570000000    -0.167988   
N234     N      0.808960000000     0.536590000000     0.147520000000    -0.198708   
N235     N      0.006210000000     0.768820000000     0.409950000000    -0.184536   
N236     N      0.011630000000     0.754640000000     0.345090000000    -0.167309   
N237     N      0.558380000000     0.797060000000     0.408800000000    -0.198282   
N238     N      0.012230000000     0.747060000000     0.159290000000    -0.184111   
N239     N      0.498510000000     0.759420000000     0.095330000000    -0.167497   
N240     N      0.973750000000     0.701730000000     0.159700000000    -0.198859   
N241     N      0.592990000000     0.998870000000     0.229600000000    -0.18386    
N242     N      0.660120000000     0.996410000000     0.221480000000    -0.166963   
N243     N      0.588800000000     0.941060000000     0.219450000000    -0.219943   
N244     N      0.847220000000     0.000140000000     0.252320000000    -0.183685   
N245     N      0.910900000000     0.006130000000     0.274560000000    -0.168903   
N246     N      0.851050000000     0.555280000000     0.229740000000    -0.197791   
N247     N      0.009780000000     0.910400000000     0.233760000000    -0.185613   
N248     N      0.505900000000     0.845700000000     0.250640000000    -0.166234   
N249     N      0.566280000000     0.913310000000     0.254980000000    -0.22062    
N250     N      0.503880000000     0.593960000000     0.268480000000    -0.183946   
N251     N      0.515470000000     0.657850000000     0.252000000000    -0.168198   
N252     N      0.556570000000     0.590780000000     0.295610000000    -0.19833    
N253     N      0.851690000000     0.757150000000     0.506070000000    -0.184627   
N254     N      0.912210000000     0.782700000000     0.492110000000    -0.168698   
N255     N      0.854960000000     0.722150000000     0.958420000000    -0.198249   
N256     N      0.595880000000     0.743970000000     0.509940000000    -0.184367   
N257     N      0.662560000000     0.752950000000     0.503020000000    -0.167323   
N258     N      0.594960000000     0.708270000000     0.963340000000    -0.198759   
N259     N      0.757550000000     0.847380000000     0.998340000000    -0.179792   
N260     N      0.768610000000     0.910560000000     0.979860000000    -0.169727   
N261     N      0.807720000000     0.848040000000     0.529910000000    -0.199312   
N262     N      0.752630000000     0.596400000000     0.996810000000    -0.18117    
N263     N      0.764540000000     0.660890000000     0.010350000000    -0.170557   
N264     N      0.720270000000     0.591460000000     0.545770000000    -0.198131   
N265     N      0.753940000000     0.505000000000     0.896130000000    -0.183455   
N266     N      0.739990000000     0.496270000000     0.831510000000    -0.167262   
N267     N      0.782340000000     0.953150000000     0.896820000000    -0.199697   
N268     N      0.763150000000     0.499200000000     0.647020000000    -0.183478   
N269     N      0.768040000000     0.494260000000     0.580570000000    -0.16772    
N270     N      0.808960000000     0.536590000000     0.647520000000    -0.198665   
N271     N      0.006210000000     0.768820000000     0.909950000000    -0.184303   
N272     N      0.011630000000     0.754640000000     0.845090000000    -0.167294   
N273     N      0.558380000000     0.797060000000     0.908800000000    -0.1983     
N274     N      0.012230000000     0.747060000000     0.659290000000    -0.18411    
N275     N      0.498510000000     0.759420000000     0.595340000000    -0.167435   
N276     N      0.973750000000     0.701730000000     0.659700000000    -0.198814   
N277     N      0.592990000000     0.998870000000     0.729600000000    -0.183824   
N278     N      0.660120000000     0.996410000000     0.721480000000    -0.166944   
N279     N      0.588800000000     0.941060000000     0.719450000000    -0.219932   
N280     N      0.847220000000     0.000140000000     0.752320000000    -0.183696   
N281     N      0.910900000000     0.006130000000     0.774560000000    -0.168875   
N282     N      0.851050000000     0.555280000000     0.729740000000    -0.19778    
N283     N      0.009780000000     0.910400000000     0.733760000000    -0.185599   
N284     N      0.505900000000     0.845700000000     0.750640000000    -0.166223   
N285     N      0.566280000000     0.913310000000     0.754980000000    -0.220615   
N286     N      0.503880000000     0.593960000000     0.768480000000    -0.183926   
N287     N      0.515470000000     0.657850000000     0.752000000000    -0.168191   
N288     N      0.556570000000     0.590780000000     0.795610000000    -0.198315   
Ni1      Ni     0.509140000000     0.496280000000     0.279360000000     0.995854   
Ni2      Ni     0.495200000000     0.006790000000     0.225290000000     1.00752    
Ni3      Ni     0.040030000000     0.253470000000     0.252440000000     0.998554   
Ni4      Ni     0.482530000000     0.249910000000     0.251740000000     0.997415   
Ni5      Ni     0.252490000000     0.026460000000     0.239620000000     0.996395   
Ni6      Ni     0.253730000000     0.469410000000     0.239110000000     0.996567   
Ni7      Ni     0.231990000000     0.000810000000     0.490160000000     0.983296   
Ni8      Ni     0.288890000000     0.005970000000     0.986740000000     1.00593    
Ni9      Ni     0.009840000000     0.291470000000     0.004600000000     0.996082   
Ni10     Ni     0.497670000000     0.235680000000     0.000450000000     0.996379   
Ni11     Ni     0.256730000000     0.256130000000     0.032920000000     0.989053   
Ni12     Ni     0.257570000000     0.252070000000     0.476570000000     1.00448    
Ni13     Ni     0.509140000000     0.496280000000     0.779360000000     0.995999   
Ni14     Ni     0.495200000000     0.006790000000     0.725290000000     1.00758    
Ni15     Ni     0.040030000000     0.253470000000     0.752440000000     0.99854    
Ni16     Ni     0.482530000000     0.249910000000     0.751740000000     0.997405   
Ni17     Ni     0.252490000000     0.026460000000     0.739620000000     0.996371   
Ni18     Ni     0.253730000000     0.469410000000     0.739110000000     0.99656    
Ni19     Ni     0.231990000000     0.000810000000     0.990160000000     0.987065   
Ni20     Ni     0.288890000000     0.005970000000     0.486740000000     1.00217    
Ni21     Ni     0.009840000000     0.291470000000     0.504600000000     0.998827   
Ni22     Ni     0.497670000000     0.235680000000     0.500450000000     1.0034     
Ni23     Ni     0.256730000000     0.256130000000     0.532930000000     0.993696   
Ni24     Ni     0.257570000000     0.252070000000     0.976570000000     1.00626    
Ni25     Ni     0.509140000000     0.996280000000     0.279360000000     0.998004   
Ni26     Ni     0.495200000000     0.506790000000     0.225290000000     1.00991    
Ni27     Ni     0.040030000000     0.753470000000     0.252440000000     0.998548   
Ni28     Ni     0.482530000000     0.749910000000     0.251740000000     0.997403   
Ni29     Ni     0.252490000000     0.526460000000     0.239620000000     0.996847   
Ni30     Ni     0.253730000000     0.969410000000     0.239110000000     0.997869   
Ni31     Ni     0.231990000000     0.500810000000     0.490160000000     0.985361   
Ni32     Ni     0.288890000000     0.505970000000     0.986740000000     1.00667    
Ni33     Ni     0.009840000000     0.791470000000     0.004600000000     0.996139   
Ni34     Ni     0.497670000000     0.735680000000     0.000450000000     0.996364   
Ni35     Ni     0.256730000000     0.756130000000     0.032920000000     0.989027   
Ni36     Ni     0.257570000000     0.752070000000     0.476570000000     1.00445    
Ni37     Ni     0.509140000000     0.996280000000     0.779360000000     0.998169   
Ni38     Ni     0.495200000000     0.506790000000     0.725290000000     1.01       
Ni39     Ni     0.040030000000     0.753470000000     0.752440000000     0.998534   
Ni40     Ni     0.482530000000     0.749910000000     0.751740000000     0.997393   
Ni41     Ni     0.252490000000     0.526460000000     0.739620000000     0.99683    
Ni42     Ni     0.253730000000     0.969410000000     0.739110000000     0.997876   
Ni43     Ni     0.231990000000     0.500810000000     0.990160000000     0.989147   
Ni44     Ni     0.288890000000     0.505970000000     0.486740000000     1.00288    
Ni45     Ni     0.009840000000     0.791470000000     0.504600000000     0.998892   
Ni46     Ni     0.497670000000     0.735680000000     0.500450000000     1.00342    
Ni47     Ni     0.256730000000     0.756130000000     0.532930000000     0.993686   
Ni48     Ni     0.257570000000     0.752070000000     0.976570000000     1.00624    
Ni49     Ni     0.009140000000     0.496280000000     0.279360000000     0.995782   
Ni50     Ni     0.995200000000     0.006790000000     0.225290000000     1.00759    
Ni51     Ni     0.540030000000     0.253470000000     0.252440000000     0.99856    
Ni52     Ni     0.982530000000     0.249910000000     0.251740000000     0.997476   
Ni53     Ni     0.752490000000     0.026460000000     0.239620000000     0.996391   
Ni54     Ni     0.753730000000     0.469410000000     0.239110000000     0.996571   
Ni55     Ni     0.731990000000     0.000810000000     0.490160000000     0.983295   
Ni56     Ni     0.788890000000     0.005970000000     0.986740000000     1.00593    
Ni57     Ni     0.509850000000     0.291470000000     0.004600000000     0.996168   
Ni58     Ni     0.997670000000     0.235680000000     0.000450000000     0.996441   
Ni59     Ni     0.756730000000     0.256130000000     0.032920000000     0.989052   
Ni60     Ni     0.757570000000     0.252070000000     0.476570000000     1.00448    
Ni61     Ni     0.009140000000     0.496280000000     0.779360000000     0.995926   
Ni62     Ni     0.995200000000     0.006790000000     0.725290000000     1.00765    
Ni63     Ni     0.540030000000     0.253470000000     0.752440000000     0.998546   
Ni64     Ni     0.982530000000     0.249910000000     0.751740000000     0.997465   
Ni65     Ni     0.752490000000     0.026460000000     0.739620000000     0.996367   
Ni66     Ni     0.753730000000     0.469410000000     0.739110000000     0.996564   
Ni67     Ni     0.731990000000     0.000810000000     0.990160000000     0.987064   
Ni68     Ni     0.788890000000     0.005970000000     0.486740000000     1.00217    
Ni69     Ni     0.509850000000     0.291470000000     0.504600000000     0.998914   
Ni70     Ni     0.997670000000     0.235680000000     0.500450000000     1.00347    
Ni71     Ni     0.756730000000     0.256130000000     0.532930000000     0.993695   
Ni72     Ni     0.757570000000     0.252070000000     0.976570000000     1.00626    
Ni73     Ni     0.009140000000     0.996280000000     0.279360000000     0.99793    
Ni74     Ni     0.995200000000     0.506790000000     0.225290000000     1.00998    
Ni75     Ni     0.540030000000     0.753470000000     0.252440000000     0.998554   
Ni76     Ni     0.982530000000     0.749910000000     0.251740000000     0.997464   
Ni77     Ni     0.752490000000     0.526460000000     0.239620000000     0.996843   
Ni78     Ni     0.753730000000     0.969410000000     0.239110000000     0.997873   
Ni79     Ni     0.731990000000     0.500810000000     0.490160000000     0.98536    
Ni80     Ni     0.788890000000     0.505970000000     0.986740000000     1.00668    
Ni81     Ni     0.509850000000     0.791470000000     0.004600000000     0.996225   
Ni82     Ni     0.997670000000     0.735680000000     0.000450000000     0.996427   
Ni83     Ni     0.756730000000     0.756130000000     0.032920000000     0.989027   
Ni84     Ni     0.757570000000     0.752070000000     0.476570000000     1.00445    
Ni85     Ni     0.009140000000     0.996280000000     0.779360000000     0.998095   
Ni86     Ni     0.995200000000     0.506790000000     0.725290000000     1.01007    
Ni87     Ni     0.540030000000     0.753470000000     0.752440000000     0.99854    
Ni88     Ni     0.982530000000     0.749910000000     0.751740000000     0.997453   
Ni89     Ni     0.752490000000     0.526460000000     0.739620000000     0.996826   
Ni90     Ni     0.753730000000     0.969410000000     0.739110000000     0.997881   
Ni91     Ni     0.731990000000     0.500810000000     0.990160000000     0.989147   
Ni92     Ni     0.788890000000     0.505970000000     0.486740000000     1.00288    
Ni93     Ni     0.509850000000     0.791470000000     0.504600000000     0.998979   
Ni94     Ni     0.997670000000     0.735680000000     0.500450000000     1.00348    
Ni95     Ni     0.756730000000     0.756130000000     0.532930000000     0.993685   
Ni96     Ni     0.757570000000     0.752070000000     0.976570000000     1.00624    
O1       O      0.009050000000     0.451740000000     0.269240000000    -0.457785   
O2       O      0.510060000000     0.042030000000     0.285580000000    -0.452548   
O3       O      0.463290000000     0.495190000000     0.288080000000    -0.444799   
O4       O      0.053410000000     0.997230000000     0.266890000000    -0.457694   
O5       O      0.040510000000     0.506940000000     0.216280000000    -0.456335   
O6       O      0.451010000000     0.006810000000     0.237810000000    -0.454786   
O7       O      0.996590000000     0.051470000000     0.235190000000    -0.453937   
O8       O      0.494750000000     0.461020000000     0.219060000000    -0.451423   
O9       O      0.038330000000     0.252210000000     0.206870000000    -0.451481   
O10      O      0.038130000000     0.255290000000     0.297570000000    -0.452772   
O11      O      0.040510000000     0.207100000000     0.254230000000    -0.444946   
O12      O      0.035490000000     0.299190000000     0.251430000000    -0.448342   
O13      O      0.481820000000     0.296040000000     0.250060000000    -0.448224   
O14      O      0.486780000000     0.204480000000     0.252500000000    -0.455594   
O15      O      0.484500000000     0.251010000000     0.297520000000    -0.446956   
O16      O      0.484670000000     0.247920000000     0.206390000000    -0.454273   
O17      O      0.207190000000     0.023700000000     0.231190000000    -0.452855   
O18      O      0.298010000000     0.025410000000     0.247480000000    -0.458313   
O19      O      0.261010000000     0.025280000000     0.194850000000    -0.455949   
O20      O      0.243810000000     0.023900000000     0.284460000000    -0.448561   
O21      O      0.248590000000     0.470740000000     0.284190000000    -0.45115    
O22      O      0.258530000000     0.471940000000     0.193890000000    -0.451184   
O23      O      0.299800000000     0.472250000000     0.244970000000    -0.448381   
O24      O      0.207660000000     0.470410000000     0.233300000000    -0.447359   
O25      O      0.230480000000     0.508620000000     0.445130000000    -0.445635   
O26      O      0.237860000000     0.992960000000     0.034830000000    -0.448422   
O27      O      0.230320000000     0.046060000000     0.498260000000    -0.451415   
O28      O      0.237700000000     0.455990000000     0.981790000000    -0.449454   
O29      O      0.291050000000     0.460090000000     0.487340000000    -0.451776   
O30      O      0.282460000000     0.051460000000     0.986480000000    -0.451701   
O31      O      0.289820000000     0.506490000000     0.032160000000    -0.453797   
O32      O      0.284050000000     0.004660000000     0.441580000000    -0.455413   
O33      O      0.054450000000     0.279960000000     0.507880000000    -0.453879   
O34      O      0.463960000000     0.299190000000     0.001980000000    -0.44903    
O35      O      0.006640000000     0.287460000000     0.049500000000    -0.453152   
O36      O      0.512980000000     0.291750000000     0.458990000000    -0.45365    
O37      O      0.000500000000     0.239880000000     0.455440000000    -0.455398   
O38      O      0.494480000000     0.235550000000     0.046200000000    -0.447025   
O39      O      0.453310000000     0.246980000000     0.496990000000    -0.45527    
O40      O      0.043400000000     0.227900000000     0.002850000000    -0.454753   
O41      O      0.255820000000     0.209860000000     0.033770000000    -0.445093   
O42      O      0.258230000000     0.301630000000     0.028100000000    -0.45353    
O43      O      0.210470000000     0.257240000000     0.029990000000    -0.447629   
O44      O      0.303050000000     0.255840000000     0.031940000000    -0.450943   
O45      O      0.303570000000     0.255820000000     0.479110000000    -0.458005   
O46      O      0.211420000000     0.247860000000     0.477950000000    -0.449532   
O47      O      0.253310000000     0.297910000000     0.475540000000    -0.452946   
O48      O      0.262270000000     0.206920000000     0.481340000000    -0.456709   
O49      O      0.009050000000     0.451740000000     0.769240000000    -0.45775    
O50      O      0.510060000000     0.042030000000     0.785580000000    -0.452492   
O51      O      0.463290000000     0.495190000000     0.788080000000    -0.44471    
O52      O      0.053410000000     0.997230000000     0.766890000000    -0.457654   
O53      O      0.040510000000     0.506940000000     0.716280000000    -0.456266   
O54      O      0.451010000000     0.006810000000     0.737810000000    -0.454755   
O55      O      0.996590000000     0.051470000000     0.735190000000    -0.453901   
O56      O      0.494750000000     0.461020000000     0.719060000000    -0.451366   
O57      O      0.038330000000     0.252210000000     0.706870000000    -0.451475   
O58      O      0.038130000000     0.255290000000     0.797570000000    -0.452759   
O59      O      0.040510000000     0.207100000000     0.754230000000    -0.444938   
O60      O      0.035490000000     0.299190000000     0.751430000000    -0.448337   
O61      O      0.481820000000     0.296040000000     0.750060000000    -0.448216   
O62      O      0.486780000000     0.204480000000     0.752500000000    -0.455588   
O63      O      0.484500000000     0.251010000000     0.797520000000    -0.446941   
O64      O      0.484670000000     0.247920000000     0.706390000000    -0.454273   
O65      O      0.207190000000     0.023700000000     0.731190000000    -0.452858   
O66      O      0.298010000000     0.025410000000     0.747480000000    -0.458325   
O67      O      0.261010000000     0.025280000000     0.694850000000    -0.455956   
O68      O      0.243810000000     0.023900000000     0.784460000000    -0.448565   
O69      O      0.248590000000     0.470740000000     0.784190000000    -0.451144   
O70      O      0.258530000000     0.471940000000     0.693890000000    -0.451167   
O71      O      0.299800000000     0.472250000000     0.744970000000    -0.448375   
O72      O      0.207660000000     0.470410000000     0.733300000000    -0.447349   
O73      O      0.230480000000     0.508620000000     0.945130000000    -0.446118   
O74      O      0.237860000000     0.992960000000     0.534830000000    -0.445575   
O75      O      0.230320000000     0.046060000000     0.998260000000    -0.4504     
O76      O      0.237700000000     0.455990000000     0.481790000000    -0.449503   
O77      O      0.291050000000     0.460090000000     0.987340000000    -0.451226   
O78      O      0.282460000000     0.051460000000     0.486480000000    -0.452024   
O79      O      0.289820000000     0.506490000000     0.532160000000    -0.450927   
O80      O      0.284050000000     0.004660000000     0.941580000000    -0.45598    
O81      O      0.054450000000     0.279960000000     0.007880000000    -0.454282   
O82      O      0.463960000000     0.299190000000     0.501980000000    -0.445753   
O83      O      0.006640000000     0.287460000000     0.549500000000    -0.453535   
O84      O      0.512980000000     0.291750000000     0.958990000000    -0.450969   
O85      O      0.000500000000     0.239880000000     0.955440000000    -0.452526   
O86      O      0.494480000000     0.235550000000     0.546200000000    -0.447598   
O87      O      0.453310000000     0.246980000000     0.996990000000    -0.452996   
O88      O      0.043400000000     0.227900000000     0.502850000000    -0.454449   
O89      O      0.255820000000     0.209860000000     0.533770000000    -0.446266   
O90      O      0.258230000000     0.301630000000     0.528100000000    -0.455546   
O91      O      0.210470000000     0.257240000000     0.529990000000    -0.448832   
O92      O      0.303050000000     0.255840000000     0.531940000000    -0.452184   
O93      O      0.303570000000     0.255820000000     0.979110000000    -0.454747   
O94      O      0.211420000000     0.247860000000     0.977950000000    -0.446242   
O95      O      0.253310000000     0.297910000000     0.975540000000    -0.448955   
O96      O      0.262270000000     0.206920000000     0.981340000000    -0.45356    
O97      O      0.009050000000     0.951740000000     0.269240000000    -0.457947   
O98      O      0.510060000000     0.542030000000     0.285580000000    -0.451789   
O99      O      0.463290000000     0.995190000000     0.288080000000    -0.443887   
O100     O      0.053410000000     0.497220000000     0.266890000000    -0.458778   
O101     O      0.040510000000     0.006930000000     0.216280000000    -0.455927   
O102     O      0.451010000000     0.506810000000     0.237810000000    -0.455117   
O103     O      0.996590000000     0.551470000000     0.235190000000    -0.45414    
O104     O      0.494750000000     0.961020000000     0.219060000000    -0.450549   
O105     O      0.038330000000     0.752210000000     0.206870000000    -0.451478   
O106     O      0.038130000000     0.755290000000     0.297570000000    -0.452775   
O107     O      0.040510000000     0.707100000000     0.254230000000    -0.444937   
O108     O      0.035490000000     0.799190000000     0.251430000000    -0.448314   
O109     O      0.481820000000     0.796040000000     0.250060000000    -0.448195   
O110     O      0.486780000000     0.704480000000     0.252500000000    -0.455585   
O111     O      0.484500000000     0.751010000000     0.297520000000    -0.446943   
O112     O      0.484670000000     0.747920000000     0.206390000000    -0.454271   
O113     O      0.207190000000     0.523700000000     0.231190000000    -0.451817   
O114     O      0.298010000000     0.525410000000     0.247480000000    -0.457203   
O115     O      0.261010000000     0.525280000000     0.194850000000    -0.455028   
O116     O      0.243810000000     0.523900000000     0.284460000000    -0.447625   
O117     O      0.248590000000     0.970740000000     0.284190000000    -0.451495   
O118     O      0.258530000000     0.971940000000     0.193890000000    -0.451524   
O119     O      0.299800000000     0.972250000000     0.244970000000    -0.448886   
O120     O      0.207660000000     0.970410000000     0.233300000000    -0.447611   
O121     O      0.230480000000     0.008620000000     0.445130000000    -0.445547   
O122     O      0.237860000000     0.492960000000     0.034830000000    -0.449069   
O123     O      0.230320000000     0.546050000000     0.498260000000    -0.451713   
O124     O      0.237700000000     0.955990000000     0.981790000000    -0.448574   
O125     O      0.291050000000     0.960090000000     0.487340000000    -0.451038   
O126     O      0.282460000000     0.551460000000     0.986480000000    -0.451848   
O127     O      0.289820000000     0.006490000000     0.032160000000    -0.454653   
O128     O      0.284050000000     0.504660000000     0.441580000000    -0.455161   
O129     O      0.054450000000     0.779960000000     0.507880000000    -0.453865   
O130     O      0.463960000000     0.799190000000     0.001980000000    -0.449009   
O131     O      0.006640000000     0.787460000000     0.049500000000    -0.453132   
O132     O      0.512980000000     0.791750000000     0.458990000000    -0.453632   
O133     O      0.000500000000     0.739880000000     0.455440000000    -0.455388   
O134     O      0.494480000000     0.735550000000     0.046200000000    -0.447012   
O135     O      0.453310000000     0.746980000000     0.496990000000    -0.455262   
O136     O      0.043400000000     0.727900000000     0.002850000000    -0.454743   
O137     O      0.255820000000     0.709860000000     0.033770000000    -0.445095   
O138     O      0.258230000000     0.801630000000     0.028100000000    -0.453542   
O139     O      0.210470000000     0.757250000000     0.029990000000    -0.447578   
O140     O      0.303050000000     0.755840000000     0.031940000000    -0.450935   
O141     O      0.303570000000     0.755820000000     0.479110000000    -0.458      
O142     O      0.211420000000     0.747850000000     0.477950000000    -0.449476   
O143     O      0.253310000000     0.797910000000     0.475540000000    -0.452979   
O144     O      0.262270000000     0.706920000000     0.481340000000    -0.456699   
O145     O      0.009050000000     0.951740000000     0.769240000000    -0.457913   
O146     O      0.510060000000     0.542030000000     0.785580000000    -0.451725   
O147     O      0.463290000000     0.995190000000     0.788080000000    -0.443789   
O148     O      0.053410000000     0.497220000000     0.766890000000    -0.45875    
O149     O      0.040510000000     0.006930000000     0.716280000000    -0.455853   
O150     O      0.451010000000     0.506810000000     0.737810000000    -0.455089   
O151     O      0.996590000000     0.551470000000     0.735190000000    -0.454106   
O152     O      0.494750000000     0.961020000000     0.719060000000    -0.450481   
O153     O      0.038330000000     0.752210000000     0.706870000000    -0.451473   
O154     O      0.038130000000     0.755290000000     0.797570000000    -0.452761   
O155     O      0.040510000000     0.707100000000     0.754230000000    -0.44493    
O156     O      0.035490000000     0.799190000000     0.751430000000    -0.448309   
O157     O      0.481820000000     0.796040000000     0.750060000000    -0.448187   
O158     O      0.486780000000     0.704480000000     0.752500000000    -0.455579   
O159     O      0.484500000000     0.751010000000     0.797520000000    -0.446928   
O160     O      0.484670000000     0.747920000000     0.706390000000    -0.45427    
O161     O      0.207190000000     0.523700000000     0.731190000000    -0.451809   
O162     O      0.298010000000     0.525410000000     0.747480000000    -0.457203   
O163     O      0.261010000000     0.525280000000     0.694850000000    -0.455024   
O164     O      0.243810000000     0.523900000000     0.784460000000    -0.44762    
O165     O      0.248590000000     0.970740000000     0.784190000000    -0.451493   
O166     O      0.258530000000     0.971940000000     0.693890000000    -0.451511   
O167     O      0.299800000000     0.972250000000     0.744970000000    -0.448886   
O168     O      0.207660000000     0.970410000000     0.733300000000    -0.447604   
O169     O      0.230480000000     0.008620000000     0.945130000000    -0.44603    
O170     O      0.237860000000     0.492960000000     0.534830000000    -0.446215   
O171     O      0.230320000000     0.546050000000     0.998260000000    -0.450695   
O172     O      0.237700000000     0.955990000000     0.481790000000    -0.448631   
O173     O      0.291050000000     0.960090000000     0.987340000000    -0.450478   
O174     O      0.282460000000     0.551460000000     0.486480000000    -0.45217    
O175     O      0.289820000000     0.006490000000     0.532160000000    -0.451821   
O176     O      0.284050000000     0.504660000000     0.941580000000    -0.45573    
O177     O      0.054450000000     0.779960000000     0.007880000000    -0.45427    
O178     O      0.463960000000     0.799190000000     0.501980000000    -0.445723   
O179     O      0.006640000000     0.787460000000     0.549500000000    -0.453516   
O180     O      0.512980000000     0.791750000000     0.958990000000    -0.450943   
O181     O      0.000500000000     0.739880000000     0.955440000000    -0.452505   
O182     O      0.494480000000     0.735550000000     0.546200000000    -0.447587   
O183     O      0.453310000000     0.746980000000     0.996990000000    -0.45298    
O184     O      0.043400000000     0.727900000000     0.502850000000    -0.454436   
O185     O      0.255820000000     0.709860000000     0.533770000000    -0.446272   
O186     O      0.258230000000     0.801630000000     0.528100000000    -0.455564   
O187     O      0.210470000000     0.757250000000     0.529990000000    -0.448785   
O188     O      0.303050000000     0.755840000000     0.531940000000    -0.45218    
O189     O      0.303570000000     0.755820000000     0.979110000000    -0.454732   
O190     O      0.211420000000     0.747850000000     0.977950000000    -0.446176   
O191     O      0.253310000000     0.797910000000     0.975540000000    -0.448976   
O192     O      0.262270000000     0.706920000000     0.981340000000    -0.453537   
O193     O      0.509050000000     0.451740000000     0.269240000000    -0.457794   
O194     O      0.010060000000     0.042030000000     0.285580000000    -0.452537   
O195     O      0.963290000000     0.495190000000     0.288080000000    -0.444675   
O196     O      0.553410000000     0.997230000000     0.266890000000    -0.457702   
O197     O      0.540510000000     0.506940000000     0.216280000000    -0.456313   
O198     O      0.951010000000     0.006810000000     0.237810000000    -0.454735   
O199     O      0.496590000000     0.051470000000     0.235190000000    -0.453963   
O200     O      0.994750000000     0.461020000000     0.219060000000    -0.4514     
O201     O      0.538330000000     0.252210000000     0.206870000000    -0.451423   
O202     O      0.538130000000     0.255290000000     0.297570000000    -0.452775   
O203     O      0.540510000000     0.207100000000     0.254230000000    -0.444951   
O204     O      0.535490000000     0.299190000000     0.251430000000    -0.448348   
O205     O      0.981820000000     0.296040000000     0.250060000000    -0.448207   
O206     O      0.986780000000     0.204480000000     0.252500000000    -0.455576   
O207     O      0.984500000000     0.251010000000     0.297520000000    -0.446941   
O208     O      0.984680000000     0.247920000000     0.206390000000    -0.454424   
O209     O      0.707190000000     0.023700000000     0.231190000000    -0.452857   
O210     O      0.798010000000     0.025410000000     0.247480000000    -0.45831    
O211     O      0.761010000000     0.025280000000     0.194850000000    -0.455958   
O212     O      0.743810000000     0.023900000000     0.284460000000    -0.448561   
O213     O      0.748590000000     0.470740000000     0.284190000000    -0.451151   
O214     O      0.758530000000     0.471940000000     0.193890000000    -0.451202   
O215     O      0.799800000000     0.472250000000     0.244970000000    -0.448377   
O216     O      0.707660000000     0.470410000000     0.233300000000    -0.447363   
O217     O      0.730480000000     0.508620000000     0.445130000000    -0.445635   
O218     O      0.737860000000     0.992960000000     0.034830000000    -0.448422   
O219     O      0.730320000000     0.046060000000     0.498260000000    -0.451415   
O220     O      0.737700000000     0.455990000000     0.981790000000    -0.449454   
O221     O      0.791050000000     0.460090000000     0.487340000000    -0.451775   
O222     O      0.782460000000     0.051460000000     0.986480000000    -0.451701   
O223     O      0.789820000000     0.506490000000     0.032160000000    -0.453796   
O224     O      0.784050000000     0.004660000000     0.441580000000    -0.455413   
O225     O      0.554450000000     0.279960000000     0.507880000000    -0.454007   
O226     O      0.963960000000     0.299190000000     0.001980000000    -0.449111   
O227     O      0.506640000000     0.287460000000     0.049500000000    -0.45313    
O228     O      0.012980000000     0.291750000000     0.458990000000    -0.453632   
O229     O      0.500500000000     0.239880000000     0.455440000000    -0.455374   
O230     O      0.994480000000     0.235550000000     0.046200000000    -0.44703    
O231     O      0.953310000000     0.246980000000     0.496990000000    -0.455287   
O232     O      0.543400000000     0.227900000000     0.002850000000    -0.454751   
O233     O      0.755820000000     0.209860000000     0.033770000000    -0.445094   
O234     O      0.758230000000     0.301630000000     0.028100000000    -0.453531   
O235     O      0.710470000000     0.257240000000     0.029990000000    -0.447629   
O236     O      0.803050000000     0.255840000000     0.031940000000    -0.450943   
O237     O      0.803570000000     0.255820000000     0.479110000000    -0.458005   
O238     O      0.711420000000     0.247860000000     0.477950000000    -0.449532   
O239     O      0.753310000000     0.297910000000     0.475540000000    -0.452946   
O240     O      0.762270000000     0.206920000000     0.481340000000    -0.456709   
O241     O      0.509050000000     0.451740000000     0.769240000000    -0.457759   
O242     O      0.010060000000     0.042030000000     0.785580000000    -0.452481   
O243     O      0.963290000000     0.495190000000     0.788080000000    -0.444586   
O244     O      0.553410000000     0.997230000000     0.766890000000    -0.457662   
O245     O      0.540510000000     0.506940000000     0.716280000000    -0.456244   
O246     O      0.951010000000     0.006810000000     0.737810000000    -0.454704   
O247     O      0.496590000000     0.051470000000     0.735190000000    -0.453927   
O248     O      0.994750000000     0.461020000000     0.719060000000    -0.451342   
O249     O      0.538330000000     0.252210000000     0.706870000000    -0.451417   
O250     O      0.538130000000     0.255290000000     0.797570000000    -0.452762   
O251     O      0.540510000000     0.207100000000     0.754230000000    -0.444944   
O252     O      0.535490000000     0.299190000000     0.751430000000    -0.448343   
O253     O      0.981820000000     0.296040000000     0.750060000000    -0.448199   
O254     O      0.986780000000     0.204480000000     0.752500000000    -0.45557    
O255     O      0.984500000000     0.251010000000     0.797520000000    -0.446926   
O256     O      0.984680000000     0.247920000000     0.706390000000    -0.454423   
O257     O      0.707190000000     0.023700000000     0.731190000000    -0.45286    
O258     O      0.798010000000     0.025410000000     0.747480000000    -0.458322   
O259     O      0.761010000000     0.025280000000     0.694850000000    -0.455965   
O260     O      0.743810000000     0.023900000000     0.784460000000    -0.448565   
O261     O      0.748590000000     0.470740000000     0.784190000000    -0.451144   
O262     O      0.758530000000     0.471940000000     0.693890000000    -0.451185   
O263     O      0.799800000000     0.472250000000     0.744970000000    -0.448372   
O264     O      0.707660000000     0.470410000000     0.733300000000    -0.447353   
O265     O      0.730480000000     0.508620000000     0.945130000000    -0.446118   
O266     O      0.737860000000     0.992960000000     0.534830000000    -0.445574   
O267     O      0.730320000000     0.046060000000     0.998260000000    -0.4504     
O268     O      0.737700000000     0.455990000000     0.481790000000    -0.449503   
O269     O      0.791050000000     0.460090000000     0.987340000000    -0.451225   
O270     O      0.782460000000     0.051460000000     0.486480000000    -0.452024   
O271     O      0.789820000000     0.506490000000     0.532160000000    -0.450927   
O272     O      0.784050000000     0.004660000000     0.941580000000    -0.45598    
O273     O      0.554450000000     0.279960000000     0.007880000000    -0.45441    
O274     O      0.963960000000     0.299190000000     0.501980000000    -0.445835   
O275     O      0.506640000000     0.287460000000     0.549500000000    -0.453513   
O276     O      0.012980000000     0.291750000000     0.958990000000    -0.450952   
O277     O      0.500500000000     0.239880000000     0.955440000000    -0.452501   
O278     O      0.994480000000     0.235550000000     0.546200000000    -0.447603   
O279     O      0.953310000000     0.246980000000     0.996990000000    -0.453013   
O280     O      0.543400000000     0.227900000000     0.502850000000    -0.454446   
O281     O      0.755820000000     0.209860000000     0.533770000000    -0.446267   
O282     O      0.758230000000     0.301630000000     0.528100000000    -0.455546   
O283     O      0.710470000000     0.257240000000     0.529990000000    -0.448832   
O284     O      0.803050000000     0.255840000000     0.531940000000    -0.452184   
O285     O      0.803570000000     0.255820000000     0.979110000000    -0.454747   
O286     O      0.711420000000     0.247860000000     0.977950000000    -0.446242   
O287     O      0.753310000000     0.297910000000     0.975540000000    -0.448955   
O288     O      0.762270000000     0.206920000000     0.981340000000    -0.45356    
O289     O      0.509050000000     0.951740000000     0.269240000000    -0.457956   
O290     O      0.010060000000     0.542030000000     0.285580000000    -0.451778   
O291     O      0.963290000000     0.995190000000     0.288080000000    -0.443763   
O292     O      0.553410000000     0.497220000000     0.266890000000    -0.458787   
O293     O      0.540510000000     0.006930000000     0.216280000000    -0.455905   
O294     O      0.951010000000     0.506810000000     0.237810000000    -0.455066   
O295     O      0.496590000000     0.551470000000     0.235190000000    -0.454165   
O296     O      0.994750000000     0.961020000000     0.219060000000    -0.450526   
O297     O      0.538330000000     0.752210000000     0.206870000000    -0.45142    
O298     O      0.538130000000     0.755290000000     0.297570000000    -0.452778   
O299     O      0.540510000000     0.707100000000     0.254230000000    -0.444943   
O300     O      0.535490000000     0.799190000000     0.251430000000    -0.448321   
O301     O      0.981820000000     0.796040000000     0.250060000000    -0.448178   
O302     O      0.986780000000     0.704480000000     0.252500000000    -0.455567   
O303     O      0.984500000000     0.751010000000     0.297520000000    -0.446928   
O304     O      0.984680000000     0.747920000000     0.206390000000    -0.454421   
O305     O      0.707190000000     0.523700000000     0.231190000000    -0.451818   
O306     O      0.798010000000     0.525410000000     0.247480000000    -0.4572     
O307     O      0.761010000000     0.525280000000     0.194850000000    -0.455038   
O308     O      0.743810000000     0.523900000000     0.284460000000    -0.447625   
O309     O      0.748590000000     0.970740000000     0.284190000000    -0.451496   
O310     O      0.758530000000     0.971940000000     0.193890000000    -0.451541   
O311     O      0.799800000000     0.972250000000     0.244970000000    -0.448882   
O312     O      0.707660000000     0.970410000000     0.233300000000    -0.447615   
O313     O      0.730480000000     0.008620000000     0.445130000000    -0.445547   
O314     O      0.737860000000     0.492960000000     0.034830000000    -0.449069   
O315     O      0.730320000000     0.546050000000     0.498260000000    -0.451713   
O316     O      0.737700000000     0.955990000000     0.981790000000    -0.448573   
O317     O      0.791050000000     0.960090000000     0.487340000000    -0.451037   
O318     O      0.782460000000     0.551460000000     0.986480000000    -0.451848   
O319     O      0.789820000000     0.006490000000     0.032160000000    -0.454652   
O320     O      0.784050000000     0.504660000000     0.441580000000    -0.455161   
O321     O      0.554450000000     0.779960000000     0.507880000000    -0.453994   
O322     O      0.963960000000     0.799190000000     0.001980000000    -0.44909    
O323     O      0.506640000000     0.787460000000     0.049500000000    -0.45311    
O324     O      0.012980000000     0.791750000000     0.458990000000    -0.453614   
O325     O      0.500500000000     0.739880000000     0.455440000000    -0.455363   
O326     O      0.994480000000     0.735550000000     0.046200000000    -0.447018   
O327     O      0.953310000000     0.746980000000     0.496990000000    -0.455279   
O328     O      0.543400000000     0.727900000000     0.002850000000    -0.45474    
O329     O      0.755820000000     0.709860000000     0.033770000000    -0.445096   
O330     O      0.758230000000     0.801630000000     0.028100000000    -0.453542   
O331     O      0.710470000000     0.757250000000     0.029990000000    -0.447578   
O332     O      0.803050000000     0.755840000000     0.031940000000    -0.450936   
O333     O      0.803570000000     0.755820000000     0.479110000000    -0.458      
O334     O      0.711420000000     0.747850000000     0.477950000000    -0.449476   
O335     O      0.753310000000     0.797910000000     0.475540000000    -0.452979   
O336     O      0.762270000000     0.706920000000     0.481340000000    -0.456698   
O337     O      0.509050000000     0.951740000000     0.769240000000    -0.457922   
O338     O      0.010060000000     0.542030000000     0.785580000000    -0.451714   
O339     O      0.963290000000     0.995190000000     0.788080000000    -0.443665   
O340     O      0.553410000000     0.497220000000     0.766890000000    -0.458759   
O341     O      0.540510000000     0.006930000000     0.716280000000    -0.455831   
O342     O      0.951010000000     0.506810000000     0.737810000000    -0.455038   
O343     O      0.496590000000     0.551470000000     0.735190000000    -0.454132   
O344     O      0.994750000000     0.961020000000     0.719060000000    -0.450457   
O345     O      0.538330000000     0.752210000000     0.706870000000    -0.451415   
O346     O      0.538130000000     0.755290000000     0.797570000000    -0.452764   
O347     O      0.540510000000     0.707100000000     0.754230000000    -0.444935   
O348     O      0.535490000000     0.799190000000     0.751430000000    -0.448315   
O349     O      0.981820000000     0.796040000000     0.750060000000    -0.44817    
O350     O      0.986780000000     0.704480000000     0.752500000000    -0.455561   
O351     O      0.984500000000     0.751010000000     0.797520000000    -0.446913   
O352     O      0.984680000000     0.747920000000     0.706390000000    -0.454421   
O353     O      0.707190000000     0.523700000000     0.731190000000    -0.45181    
O354     O      0.798010000000     0.525410000000     0.747480000000    -0.4572     
O355     O      0.761010000000     0.525280000000     0.694850000000    -0.455033   
O356     O      0.743810000000     0.523900000000     0.784460000000    -0.447619   
O357     O      0.748590000000     0.970740000000     0.784190000000    -0.451493   
O358     O      0.758530000000     0.971940000000     0.693890000000    -0.451528   
O359     O      0.799800000000     0.972250000000     0.744970000000    -0.448882   
O360     O      0.707660000000     0.970410000000     0.733300000000    -0.447608   
O361     O      0.730480000000     0.008620000000     0.945130000000    -0.44603    
O362     O      0.737860000000     0.492960000000     0.534830000000    -0.446214   
O363     O      0.730320000000     0.546050000000     0.998260000000    -0.450695   
O364     O      0.737700000000     0.955990000000     0.481790000000    -0.448631   
O365     O      0.791050000000     0.960090000000     0.987340000000    -0.450477   
O366     O      0.782460000000     0.551460000000     0.486480000000    -0.452169   
O367     O      0.789820000000     0.006490000000     0.532160000000    -0.451821   
O368     O      0.784050000000     0.504660000000     0.941580000000    -0.455729   
O369     O      0.554450000000     0.779960000000     0.007880000000    -0.454398   
O370     O      0.963960000000     0.799190000000     0.501980000000    -0.445804   
O371     O      0.506640000000     0.787460000000     0.549500000000    -0.453494   
O372     O      0.012980000000     0.791750000000     0.958990000000    -0.450926   
O373     O      0.500500000000     0.739880000000     0.955440000000    -0.452481   
O374     O      0.994480000000     0.735550000000     0.546200000000    -0.447593   
O375     O      0.953310000000     0.746980000000     0.996990000000    -0.452997   
O376     O      0.543400000000     0.727900000000     0.502850000000    -0.454434   
O377     O      0.755820000000     0.709860000000     0.533770000000    -0.446273   
O378     O      0.758230000000     0.801630000000     0.528100000000    -0.455564   
O379     O      0.710470000000     0.757250000000     0.529990000000    -0.448785   
O380     O      0.803050000000     0.755840000000     0.531940000000    -0.45218    
O381     O      0.803570000000     0.755820000000     0.979110000000    -0.454732   
O382     O      0.711420000000     0.747850000000     0.977950000000    -0.446176   
O383     O      0.753310000000     0.797910000000     0.975540000000    -0.448976   
O384     O      0.762270000000     0.706920000000     0.981340000000    -0.453537   


